Using: /usr/bin/time -p /vol/synopsys2010/hspice_vD-2010.03-SP2/hspice/linux/hspice LOOKAHEAD_layout.sp
 ****** HSPICE -- D-2010.03-SP2 32-BIT (Aug 26 2010) linux ******               
  Copyright (C) 2010 Synopsys, Inc. All Rights Reserved.                        
  Unpublished-rights reserved under US copyright laws.
  This program is protected by law and is subject to the 
  terms and conditions of the license agreement from Synopsys.
  Use of this program is your acceptance to be bound by the 
  license agreement. HSPICE is the trademark of Synopsys, Inc.
  Input File: LOOKAHEAD_layout.sp                                               
 lic:  
 lic: FLEXlm: v10.8 
 lic: USER:   sjz474               HOSTNAME: batgirl.ece.northwestern.edu 
 lic: HOSTID: 1803731fda0b         PID:      23262 
 lic: Using FLEXlm license file: 
 lic: -1@cadfs.ece.northwestern.edu 
 lic: Checkout 1 hspice 
 lic: License/Maintenance for hspice will expire on 15-oct-2013/2012.06 
 lic: 1(in_use)/50(total) FLOATING license(s) on SERVER cadfs.ece.northwestern.e
 lic:   
 Init: read install configuration file: /vol/synopsys2010/hspice_vD-2010.03-SP2/hspice/meta.cfg
 **warning** Warning(s) associated with encrypted block(s) were suppressed due to encrypted content.
1****** HSPICE -- D-2010.03-SP2 32-BIT (Aug 26 2010) linux ******               
 ******  
 .include

  ******  circuit name directory
 circuit number to circuit name directory
   number circuitname                     definition         multiplier
        0 main circuit
        1 x1.                             lookahead          1.00 
        2 x1.x_pm_lookahead%xi59/net7.    pm_lookahead%xi59/net7
                                                                 1.00 
        3 x1.x_pm_lookahead%xi91/net7.    pm_lookahead%xi91/net7
                                                                 1.00 
        4 x1.x_pm_lookahead%xi92/net7.    pm_lookahead%xi92/net7
                                                                 1.00 
        5 x1.x_pm_lookahead%xi20/net7.    pm_lookahead%xi20/net7
                                                                 1.00 
        6 x1.x_pm_lookahead%xi22/net7.    pm_lookahead%xi22/net7
                                                                 1.00 
        7 x1.x_pm_lookahead%xi61/net7.    pm_lookahead%xi61/net7
                                                                 1.00 
        8 x1.x_pm_lookahead%xi60/net7.    pm_lookahead%xi60/net7
                                                                 1.00 
        9 x1.x_pm_lookahead%xi24/net7.    pm_lookahead%xi24/net7
                                                                 1.00 
       10 x1.x_pm_lookahead%xi31/net7.    pm_lookahead%xi31/net7
                                                                 1.00 
       11 x1.x_pm_lookahead%xi62/net7.    pm_lookahead%xi62/net7
                                                                 1.00 
       12 x1.x_pm_lookahead%xi63/net7.    pm_lookahead%xi63/net7
                                                                 1.00 
       13 x1.x_pm_lookahead%xi32/net7.    pm_lookahead%xi32/net7
                                                                 1.00 
       14 x1.x_pm_lookahead%xi35/net7.    pm_lookahead%xi35/net7
                                                                 1.00 
       15 x1.x_pm_lookahead%xi71/net7.    pm_lookahead%xi71/net7
                                                                 1.00 
       16 x1.x_pm_lookahead%xi72/net7.    pm_lookahead%xi72/net7
                                                                 1.00 
       17 x1.x_pm_lookahead%xi39/net7.    pm_lookahead%xi39/net7
                                                                 1.00 
       18 x1.x_pm_lookahead%xi40/net7.    pm_lookahead%xi40/net7
                                                                 1.00 
       19 x1.x_pm_lookahead%xi73/net7.    pm_lookahead%xi73/net7
                                                                 1.00 
       20 x1.x_pm_lookahead%xi74/net7.    pm_lookahead%xi74/net7
                                                                 1.00 
       21 x1.x_pm_lookahead%xi38/net7.    pm_lookahead%xi38/net7
                                                                 1.00 
       22 x1.x_pm_lookahead%xi41/net7.    pm_lookahead%xi41/net7
                                                                 1.00 
       23 x1.x_pm_lookahead%xi75/net7.    pm_lookahead%xi75/net7
                                                                 1.00 
       24 x1.x_pm_lookahead%xi76/net7.    pm_lookahead%xi76/net7
                                                                 1.00 
       25 x1.x_pm_lookahead%xi50/net7.    pm_lookahead%xi50/net7
                                                                 1.00 
       26 x1.x_pm_lookahead%xi49/net7.    pm_lookahead%xi49/net7
                                                                 1.00 
       27 x1.x_pm_lookahead%xi78/net7.    pm_lookahead%xi78/net7
                                                                 1.00 
       28 x1.x_pm_lookahead%xi86/net7.    pm_lookahead%xi86/net7
                                                                 1.00 
       29 x1.x_pm_lookahead%xi48/net7.    pm_lookahead%xi48/net7
                                                                 1.00 
       30 x1.x_pm_lookahead%xi47/net7.    pm_lookahead%xi47/net7
                                                                 1.00 
       31 x1.x_pm_lookahead%xi87/net7.    pm_lookahead%xi87/net7
                                                                 1.00 
       32 x1.x_pm_lookahead%xi88/net7.    pm_lookahead%xi88/net7
                                                                 1.00 
       33 x1.x_pm_lookahead%xi51/net7.    pm_lookahead%xi51/net7
                                                                 1.00 
       34 x1.x_pm_lookahead%xi58/net7.    pm_lookahead%xi58/net7
                                                                 1.00 
       35 x1.x_pm_lookahead%xi89/net7.    pm_lookahead%xi89/net7
                                                                 1.00 
       36 x1.x_pm_lookahead%xi90/net7.    pm_lookahead%xi90/net7
                                                                 1.00 
       37 x1.x_pm_lookahead%xi10/xi0/net9.
                                            pm_lookahead%xi10/xi0/net9
                                                                 1.00 
       38 x1.x_pm_lookahead%xi10/xi1/net9.
                                            pm_lookahead%xi10/xi1/net9
                                                                 1.00 
       39 x1.x_pm_lookahead%xi11/xi0/net9.
                                            pm_lookahead%xi11/xi0/net9
                                                                 1.00 
       40 x1.x_pm_lookahead%xi11/xi1/net9.
                                            pm_lookahead%xi11/xi1/net9
                                                                 1.00 
       41 x1.x_pm_lookahead%xi12/xi0/net9.
                                            pm_lookahead%xi12/xi0/net9
                                                                 1.00 
       42 x1.x_pm_lookahead%xi12/xi1/net9.
                                            pm_lookahead%xi12/xi1/net9
                                                                 1.00 
       43 x1.x_pm_lookahead%xi13/xi0/net9.
                                            pm_lookahead%xi13/xi0/net9
                                                                 1.00 
       44 x1.x_pm_lookahead%xi13/xi1/net9.
                                            pm_lookahead%xi13/xi1/net9
                                                                 1.00 
       45 x1.x_pm_lookahead%xi14/xi0/net9.
                                            pm_lookahead%xi14/xi0/net9
                                                                 1.00 
       46 x1.x_pm_lookahead%xi14/xi1/net9.
                                            pm_lookahead%xi14/xi1/net9
                                                                 1.00 
       47 x1.x_pm_lookahead%xi15/xi0/net9.
                                            pm_lookahead%xi15/xi0/net9
                                                                 1.00 
       48 x1.x_pm_lookahead%xi15/xi1/net9.
                                            pm_lookahead%xi15/xi1/net9
                                                                 1.00 
       49 x1.x_pm_lookahead%xi16/xi0/net9.
                                            pm_lookahead%xi16/xi0/net9
                                                                 1.00 
       50 x1.x_pm_lookahead%xi16/xi1/net9.
                                            pm_lookahead%xi16/xi1/net9
                                                                 1.00 
       51 x1.x_pm_lookahead%xi10/net10.   pm_lookahead%xi10/net10
                                                                 1.00 
       52 x1.x_pm_lookahead%xi11/net10.   pm_lookahead%xi11/net10
                                                                 1.00 
       53 x1.x_pm_lookahead%xi12/net10.   pm_lookahead%xi12/net10
                                                                 1.00 
       54 x1.x_pm_lookahead%xi13/net10.   pm_lookahead%xi13/net10
                                                                 1.00 
       55 x1.x_pm_lookahead%xi14/net10.   pm_lookahead%xi14/net10
                                                                 1.00 
       56 x1.x_pm_lookahead%xi15/net10.   pm_lookahead%xi15/net10
                                                                 1.00 
       57 x1.x_pm_lookahead%xi16/net10.   pm_lookahead%xi16/net10
                                                                 1.00 
       58 x1.x_pm_lookahead%xi53/net8.    pm_lookahead%xi53/net8
                                                                 1.00 
       59 x1.x_pm_lookahead%xi54/net8.    pm_lookahead%xi54/net8
                                                                 1.00 
       60 x1.x_pm_lookahead%xi84/net8.    pm_lookahead%xi84/net8
                                                                 1.00 
       61 x1.x_pm_lookahead%xi85/net8.    pm_lookahead%xi85/net8
                                                                 1.00 
       62 x1.x_pm_lookahead%xi17/net8.    pm_lookahead%xi17/net8
                                                                 1.00 
       63 x1.x_pm_lookahead%xi19/net8.    pm_lookahead%xi19/net8
                                                                 1.00 
       64 x1.x_pm_lookahead%xi55/net8.    pm_lookahead%xi55/net8
                                                                 1.00 
       65 x1.x_pm_lookahead%xi56/net8.    pm_lookahead%xi56/net8
                                                                 1.00 
       66 x1.x_pm_lookahead%xi21/net8.    pm_lookahead%xi21/net8
                                                                 1.00 
       67 x1.x_pm_lookahead%xi23/net8.    pm_lookahead%xi23/net8
                                                                 1.00 
       68 x1.x_pm_lookahead%xi57/net8.    pm_lookahead%xi57/net8
                                                                 1.00 
       69 x1.x_pm_lookahead%xi64/net8.    pm_lookahead%xi64/net8
                                                                 1.00 
       70 x1.x_pm_lookahead%xi30/net8.    pm_lookahead%xi30/net8
                                                                 1.00 
       71 x1.x_pm_lookahead%xi27/net8.    pm_lookahead%xi27/net8
                                                                 1.00 
       72 x1.x_pm_lookahead%xi65/net8.    pm_lookahead%xi65/net8
                                                                 1.00 
       73 x1.x_pm_lookahead%xi66/net8.    pm_lookahead%xi66/net8
                                                                 1.00 
       74 x1.x_pm_lookahead%xi34/net8.    pm_lookahead%xi34/net8
                                                                 1.00 
       75 x1.x_pm_lookahead%xi33/net8.    pm_lookahead%xi33/net8
                                                                 1.00 
       76 x1.x_pm_lookahead%xi67/net8.    pm_lookahead%xi67/net8
                                                                 1.00 
       77 x1.x_pm_lookahead%xi68/net8.    pm_lookahead%xi68/net8
                                                                 1.00 
       78 x1.x_pm_lookahead%xi36/net8.    pm_lookahead%xi36/net8
                                                                 1.00 
       79 x1.x_pm_lookahead%xi37/net8.    pm_lookahead%xi37/net8
                                                                 1.00 
       80 x1.x_pm_lookahead%xi69/net8.    pm_lookahead%xi69/net8
                                                                 1.00 
       81 x1.x_pm_lookahead%xi70/net8.    pm_lookahead%xi70/net8
                                                                 1.00 
       82 x1.x_pm_lookahead%xi42/net8.    pm_lookahead%xi42/net8
                                                                 1.00 
       83 x1.x_pm_lookahead%xi43/net8.    pm_lookahead%xi43/net8
                                                                 1.00 
       84 x1.x_pm_lookahead%xi77/net8.    pm_lookahead%xi77/net8
                                                                 1.00 
       85 x1.x_pm_lookahead%xi79/net8.    pm_lookahead%xi79/net8
                                                                 1.00 
       86 x1.x_pm_lookahead%xi44/net8.    pm_lookahead%xi44/net8
                                                                 1.00 
       87 x1.x_pm_lookahead%xi45/net8.    pm_lookahead%xi45/net8
                                                                 1.00 
       88 x1.x_pm_lookahead%xi80/net8.    pm_lookahead%xi80/net8
                                                                 1.00 
       89 x1.x_pm_lookahead%xi81/net8.    pm_lookahead%xi81/net8
                                                                 1.00 
       90 x1.x_pm_lookahead%xi46/net8.    pm_lookahead%xi46/net8
                                                                 1.00 
       91 x1.x_pm_lookahead%xi52/net8.    pm_lookahead%xi52/net8
                                                                 1.00 
       92 x1.x_pm_lookahead%xi82/net8.    pm_lookahead%xi82/net8
                                                                 1.00 
       93 x1.x_pm_lookahead%xi83/net8.    pm_lookahead%xi83/net8
                                                                 1.00 
       94 x1.x_pm_lookahead%b<0>.         pm_lookahead%b<0>
                                                                 1.00 
       95 x1.x_pm_lookahead%net096.       pm_lookahead%net096
                                                                 1.00 
       96 x1.x_pm_lookahead%a<0>.         pm_lookahead%a<0>
                                                                 1.00 
       97 x1.x_pm_lookahead%net088.       pm_lookahead%net088
                                                                 1.00 
       98 x1.x_pm_lookahead%net030.       pm_lookahead%net030
                                                                 1.00 
       99 x1.x_pm_lookahead%net0105.      pm_lookahead%net0105
                                                                 1.00 
      100 x1.x_pm_lookahead%b<1>.         pm_lookahead%b<1>
                                                                 1.00 
      101 x1.x_pm_lookahead%net061.       pm_lookahead%net061
                                                                 1.00 
      102 x1.x_pm_lookahead%a<1>.         pm_lookahead%a<1>
                                                                 1.00 
      103 x1.x_pm_lookahead%net033.       pm_lookahead%net033
                                                                 1.00 
      104 x1.x_pm_lookahead%net0102.      pm_lookahead%net0102
                                                                 1.00 
      105 x1.x_pm_lookahead%net082.       pm_lookahead%net082
                                                                 1.00 
      106 x1.x_pm_lookahead%net034.       pm_lookahead%net034
                                                                 1.00 
      107 x1.x_pm_lookahead%net022.       pm_lookahead%net022
                                                                 1.00 
      108 x1.x_pm_lookahead%net0123.      pm_lookahead%net0123
                                                                 1.00 
      109 x1.x_pm_lookahead%b<2>.         pm_lookahead%b<2>
                                                                 1.00 
      110 x1.x_pm_lookahead%b<6>.         pm_lookahead%b<6>
                                                                 1.00 
      111 x1.x_pm_lookahead%a<2>.         pm_lookahead%a<2>
                                                                 1.00 
      112 x1.x_pm_lookahead%a<6>.         pm_lookahead%a<6>
                                                                 1.00 
      113 x1.x_pm_lookahead%net041.       pm_lookahead%net041
                                                                 1.00 
      114 x1.x_pm_lookahead%net0149.      pm_lookahead%net0149
                                                                 1.00 
      115 x1.x_pm_lookahead%net0100.      pm_lookahead%net0100
                                                                 1.00 
      116 x1.x_pm_lookahead%net042.       pm_lookahead%net042
                                                                 1.00 
      117 x1.x_pm_lookahead%net0119.      pm_lookahead%net0119
                                                                 1.00 
      118 x1.x_pm_lookahead%net032.       pm_lookahead%net032
                                                                 1.00 
      119 x1.x_pm_lookahead%net0132.      pm_lookahead%net0132
                                                                 1.00 
      120 x1.x_pm_lookahead%net0129.      pm_lookahead%net0129
                                                                 1.00 
      121 x1.x_pm_lookahead%net031.       pm_lookahead%net031
                                                                 1.00 
      122 x1.x_pm_lookahead%net0128.      pm_lookahead%net0128
                                                                 1.00 
      123 x1.x_pm_lookahead%b<3>.         pm_lookahead%b<3>
                                                                 1.00 
      124 x1.x_pm_lookahead%a<3>.         pm_lookahead%a<3>
                                                                 1.00 
      125 x1.x_pm_lookahead%net065.       pm_lookahead%net065
                                                                 1.00 
      126 x1.x_pm_lookahead%net0126.      pm_lookahead%net0126
                                                                 1.00 
      127 x1.x_pm_lookahead%net062.       pm_lookahead%net062
                                                                 1.00 
      128 x1.x_pm_lookahead%net076.       pm_lookahead%net076
                                                                 1.00 
      129 x1.x_pm_lookahead%net0158.      pm_lookahead%net0158
                                                                 1.00 
      130 x1.x_pm_lookahead%net063.       pm_lookahead%net063
                                                                 1.00 
      131 x1.x_pm_lookahead%net0122.      pm_lookahead%net0122
                                                                 1.00 
      132 x1.x_pm_lookahead%net0142.      pm_lookahead%net0142
                                                                 1.00 
      133 x1.x_pm_lookahead%net078.       pm_lookahead%net078
                                                                 1.00 
      134 x1.x_pm_lookahead%net0147.      pm_lookahead%net0147
                                                                 1.00 
      135 x1.x_pm_lookahead%b<4>.         pm_lookahead%b<4>
                                                                 1.00 
      136 x1.x_pm_lookahead%b<7>.         pm_lookahead%b<7>
                                                                 1.00 
      137 x1.x_pm_lookahead%a<4>.         pm_lookahead%a<4>
                                                                 1.00 
      138 x1.x_pm_lookahead%a<7>.         pm_lookahead%a<7>
                                                                 1.00 
      139 x1.x_pm_lookahead%net0152.      pm_lookahead%net0152
                                                                 1.00 
      140 x1.x_pm_lookahead%net081.       pm_lookahead%net081
                                                                 1.00 
      141 x1.x_pm_lookahead%net0150.      pm_lookahead%net0150
                                                                 1.00 
      142 x1.x_pm_lookahead%net079.       pm_lookahead%net079
                                                                 1.00 
      143 x1.x_pm_lookahead%net0159.      pm_lookahead%net0159
                                                                 1.00 
      144 x1.x_pm_lookahead%net068.       pm_lookahead%net068
                                                                 1.00 
      145 x1.x_pm_lookahead%net0163.      pm_lookahead%net0163
                                                                 1.00 
      146 x1.x_pm_lookahead%net0160.      pm_lookahead%net0160
                                                                 1.00 
      147 x1.x_pm_lookahead%net0167.      pm_lookahead%net0167
                                                                 1.00 
      148 x1.x_pm_lookahead%b<5>.         pm_lookahead%b<5>
                                                                 1.00 
      149 x1.x_pm_lookahead%a<5>.         pm_lookahead%a<5>
                                                                 1.00 
      150 x1.x_pm_lookahead%net0153.      pm_lookahead%net0153
                                                                 1.00 
      151 x1.x_pm_lookahead%net0151.      pm_lookahead%net0151
                                                                 1.00 
      152 x1.x_pm_lookahead%net0177.      pm_lookahead%net0177
                                                                 1.00 
      153 x1.x_pm_lookahead%net0110.      pm_lookahead%net0110
                                                                 1.00 
      154 x1.x_pm_lookahead%net0112.      pm_lookahead%net0112
                                                                 1.00 
      155 x1.x_pm_lookahead%net037.       pm_lookahead%net037
                                                                 1.00 
      156 x1.x_pm_lookahead%net0111.      pm_lookahead%net0111
                                                                 1.00 
      157 x1.x_pm_lookahead%net11.        pm_lookahead%net11
                                                                 1.00 
      158 x1.x_pm_lookahead%net059.       pm_lookahead%net059
                                                                 1.00 
      159 x1.x_pm_lookahead%net056.       pm_lookahead%net056
                                                                 1.00 
      160 x1.x_pm_lookahead%net0145.      pm_lookahead%net0145
                                                                 1.00 
      161 x1.x_pm_lookahead%net0156.      pm_lookahead%net0156
                                                                 1.00 
      162 x1.x_pm_lookahead%net073.       pm_lookahead%net073
                                                                 1.00 
      163 x1.x_pm_lookahead%net0140.      pm_lookahead%net0140
                                                                 1.00 
      164 x1.x_pm_lookahead%net077.       pm_lookahead%net077
                                                                 1.00 
      165 x1.x_pm_lookahead%net0137.      pm_lookahead%net0137
                                                                 1.00 
      166 x1.x_pm_lookahead%net19.        pm_lookahead%net19
                                                                 1.00 
      167 x1.x_pm_lookahead%net0134.      pm_lookahead%net0134
                                                                 1.00 
      168 x1.x_pm_lookahead%net7.         pm_lookahead%net7
                                                                 1.00 
      169 x1.x_pm_lookahead%net066.       pm_lookahead%net066
                                                                 1.00 
      170 x1.x_pm_lookahead%net070.       pm_lookahead%net070
                                                                 1.00 
      171 x1.x_pm_lookahead%net0174.      pm_lookahead%net0174
                                                                 1.00 
      172 x1.x_pm_lookahead%net074.       pm_lookahead%net074
                                                                 1.00 
      173 x1.x_pm_lookahead%net0171.      pm_lookahead%net0171
                                                                 1.00 
      174 x1.x_pm_lookahead%net15.        pm_lookahead%net15
                                                                 1.00 
      175 x1.x_pm_lookahead%net0169.      pm_lookahead%net0169
                                                                 1.00 
      176 x1.x_pm_lookahead%net0166.      pm_lookahead%net0166
                                                                 1.00 
      177 x1.x_pm_lookahead%net0116.      pm_lookahead%net0116
                                                                 1.00 
      178 x1.x_pm_lookahead%net0161.      pm_lookahead%net0161
                                                                 1.00 
      179 x1.x_pm_lookahead%net0192.      pm_lookahead%net0192
                                                                 1.00 
      180 x1.x_pm_lookahead%gnd!.         pm_lookahead%gnd!
                                                                 1.00 
      181 x1.x_pm_lookahead%vdd!.         pm_lookahead%vdd!
                                                                 1.00 
      182 x1.x_pm_lookahead%xi9/xi0/net9. pm_lookahead%xi9/xi0/net9
                                                                 1.00 
      183 x1.x_pm_lookahead%s<0>.         pm_lookahead%s<0>
                                                                 1.00 
      184 x1.x_pm_lookahead%cout.         pm_lookahead%cout
                                                                 1.00 
      185 x1.x_pm_lookahead%s<1>.         pm_lookahead%s<1>
                                                                 1.00 
      186 x1.x_pm_lookahead%s<2>.         pm_lookahead%s<2>
                                                                 1.00 
      187 x1.x_pm_lookahead%s<3>.         pm_lookahead%s<3>
                                                                 1.00 
      188 x1.x_pm_lookahead%s<4>.         pm_lookahead%s<4>
                                                                 1.00 
      189 x1.x_pm_lookahead%s<5>.         pm_lookahead%s<5>
                                                                 1.00 
      190 x1.x_pm_lookahead%s<6>.         pm_lookahead%s<6>
                                                                 1.00 
      191 x1.x_pm_lookahead%s<7>.         pm_lookahead%s<7>
                                                                 1.00 
1****** HSPICE -- D-2010.03-SP2 32-BIT (Aug 26 2010) linux ******               
 ******  
 .include

  ******  mos   model parameters tnom=  25.000 temp=  25.000 *****
 
Model Name: nmos_vtg  

 BSIM4 Model (Level 54)

    MOBMOD = 0
    BINUNIT = 1
    PARAMCHK = 1
    CAPMOD = 2
    DIOMOD = 1
    RDSMOD = 0
    TRNQSMOD = 0
    ACNQSMOD = 0
    RBODYMOD = 1
    RGATEMOD = 1
    PERMOD = 1
    GEOMOD = 1
    RGEOMOD = 0
    FNOIMOD = 1
    TNOIMOD = 0
    IGCMOD = 1
    IGBMOD = 1
    STIMOD = 0
    VERSION =      4 
    TOXREF = 1.14e-09 
    TOXE = 1.14e-09 
    TOXP =  1e-09 
    TOXM = 1.14e-09 
    DTOX = 1.4e-10 
    EPSROX =    3.9 
    CDSC =      0 
    CDSCB =      0 
    CDSCD =      0 
    CIT =      0 
    NFACTOR =    2.1 
    XJ = 1.98e-08 
    VSAT = 1.23e+05 
    A0 =      1 
    AGS =      0 
    A1 =      0 
    A2 =      1 
    AT = 3.3e+04 
    KETA =   0.04 
    NSUB =  6e+16 
    NDEP = 3.4e+18 
    NSD =  2e+20 
    NGATE =  3e+20 
    GAMMA1 =      0 
    GAMMA2 =      0 
    VBX =      0 
    VBM =     -3 
    XT = 1.55e-07 
    K1 =    0.4 
    KT1 =  -0.11 
    KT1L =      0 
    KT2 =  0.022 
    K2 =      0 
    K3 =      0 
    K3B =      0 
    LPE0 =      0 
    LPEB =      0 
    DVTP0 =  1e-10 
    DVTP1 =    0.1 
    W0 = 2.5e-06 
    DVT0 =      1 
    DVT1 =      2 
    DVT2 =      0 
    DVT0W =      0 
    DVT1W =      0 
    DVT2W =      0 
    DROUT =    0.5 
    DSUB =    0.1 
    VTH0 = 0.4106 
    EU =   1.67 
    UA =  6e-10 
    UA1 = 4.31e-09 
    UB = 1.2e-18 
    UB1 = 7.61e-18 
    UC =      0 
    UC1 = -5.6e-11 
    U0 =  0.045 
    UTE =   -1.5 
    VOFF =  -0.13 
    VOFFL =      0 
    MINV =   0.05 
    FPROUT =    0.2 
    PDITS =   0.08 
    PDITSD =   0.23 
    PDITSL = 2.3e+06 
    DELTA =   0.01 
    RDSW =    155 
    RDSWMIN =      0 
    RDWMIN =      0 
    RSWMIN =      0 
    RDW =     80 
    RSW =     80 
    PRWG =      0 
    PRWB =      0 
    PRT =      0 
    ETA0 =  0.006 
    ETAB =      0 
    PCLM =   0.02 
    PDIBLC1 =  0.001 
    PDIBLC2 =  0.001 
    PDIBLCB = -0.005 
    PSCBE1 = 8.14e+08 
    PSCBE2 =  1e-07 
    PVAG =  1e-20 
    WR =      1 
    DWG =      0 
    DWB =      0 
    XW =      0 
    XWREF =      0 
    XL = -2e-08 
    XLREF = -2e-08 
    B0 =      0 
    B1 =      0 
    ALPHA0 =  0.074 
    ALPHA1 =  0.005 
    AGIDL = 0.0002 
    BGIDL = 2.1e+09 
    CGIDL = 0.0002 
    PHIN =      0 
    EGIDL =    0.8 
    AIGC =   0.02 
    BIGC = 0.0027 
    CIGC =  0.002 
    AIGSD =   0.02 
    BIGSD = 0.0027 
    CIGSD =  0.002 
    AIGBACC =  0.012 
    BIGBACC = 0.0028 
    CIGBACC =  0.002 
    AIGBINV =  0.014 
    BIGBINV =  0.004 
    CIGBINV =  0.004 
    NIGC =      1 
    NIGBINV =      3 
    NIGBACC =      1 
    NTOX =      1 
    EIGBINV =    1.1 
    PIGCD =      1 
    POXEDGE =      1 
    XRCRG1 =     12 
    TNOIA =    1.5 
    TNOIB =    3.5 
    NTNOI =      1 
    XRCRG2 =      5 
    BETA0 =     30 
    IJTHDFWD =   0.01 
    IJTHSFWD =   0.01 
    IJTHDREV =  0.001 
    IJTHSREV =  0.001 
    XJBVD =      1 
    XJBVS =      1 
    BVD =     10 
    BVS =     10 
    VFB =  -0.55 
    GBMIN =  1e-10 
    RBDB =     15 
    RBPB =      5 
    RBSB =     15 
    RBPS =     15 
    RBPD =     15 
    CGSL = 2.653e-10 
    CGDL = 2.653e-10 
    CKAPPAS =   0.03 
    CKAPPAD =   0.03 
    CF = 1.289e-10 
    CLC =  1e-07 
    CLE =    0.6 
    DWC =  5e-09 
    DLC = 3.75e-09 
    DLCIG = 3.75e-09 
    DWJ =      0 
    VFBCV =     -1 
    ACDE =      1 
    MOIN =     15 
    NOFF =    0.9 
    VOFFCV =   0.02 
    DMCG =      0 
    DMCI =      0 
    DMDG =      0 
    DMCGT =      0 
    XGW =      0 
    XGL =      0 
    RSHG =    0.4 
    NGCON =      1 
    TCJ =  0.001 
    TPB =  0.005 
    TCJSW =  0.001 
    TPBSW =  0.005 
    TCJSWG =  0.001 
    TPBSWG =  0.005 
    SK0 =      0 
    SK1 =      0 
    SK2 =      0 
    SL =  2e-06 
    SW =  2e-06 
    K =      0 
    TNOM =  300.1 
    CGSO = 1.1e-10 
    CGDO = 1.1e-10 
    CGBO = 2.56e-11 
    XPART =      0 
    RSH =      5 
    JSS = 0.0001 
    JSWS =  1e-11 
    JSWGS =  1e-10 
    PBS =      1 
    MJS =    0.5 
    PBSWS =      1 
    MJSWS =   0.33 
    CJS = 0.0005 
    CJSWS =  5e-10 
    NJS =      1 
    PBSWGS =      1 
    MJSWGS =   0.33 
    CJSWGS =  3e-10 
    XTIS =      3 
    JSD = 0.0001 
    JSWD =  1e-11 
    JSWGD =  1e-10 
    PBD =      1 
    MJD =    0.5 
    PBSWD =      1 
    MJSWD =   0.33 
    CJD = 0.0005 
    CJSWD =  5e-10 
    NJD =      1 
    PBSWGD =      1 
    MJSWGD =   0.33 
    CJSWGD =  5e-10 
    XTID =      3 
    LMLT =      1 
    WMLT =      1 
    LINT = 3.75e-09 
    LL =      0 
    LLC =      0 
    LLN =      1 
    LW =      0 
    LWC =      0 
    LWN =      1 
    LWL =      0 
    LWLC =      0 
    LMIN =      0 
    LMAX =      1 
    WINT =  5e-09 
    WL =      0 
    WLC =      0 
    WLN =      1 
    WW =      0 
    WWC =      0 
    WWN =      1 
    WWL =      0 
    WWLC =      0 
    WMIN =      0 
    WMAX =      1 
    NOIA = 6.25e+41 
    NOIB = 3.125e+26 
    NOIC = 8.75e+09 
    EM = 4.1e+07 
    EF =      1 
    AF =      1 
    KF =      0 
    TRS =      0 
    TRD =      0 
 

 
Model Name: pmos_vtg  

 BSIM4 Model (Level 54)

    MOBMOD = 0
    BINUNIT = 1
    PARAMCHK = 1
    CAPMOD = 2
    DIOMOD = 1
    RDSMOD = 0
    TRNQSMOD = 0
    ACNQSMOD = 0
    RBODYMOD = 1
    RGATEMOD = 1
    PERMOD = 1
    GEOMOD = 1
    RGEOMOD = 0
    FNOIMOD = 1
    TNOIMOD = 0
    IGCMOD = 1
    IGBMOD = 1
    STIMOD = 0
    VERSION =      4 
    TOXREF = 1.3e-09 
    TOXE = 1.26e-09 
    TOXP =  1e-09 
    TOXM = 1.26e-09 
    DTOX = 2.6e-10 
    EPSROX =    3.9 
    CDSC =      0 
    CDSCB =      0 
    CDSCD =      0 
    CIT =      0 
    NFACTOR =   2.22 
    XJ = 1.98e-08 
    VSAT = 6.2e+04 
    A0 =      1 
    AGS =  1e-20 
    A1 =      0 
    A2 =      1 
    AT = 3.3e+04 
    KETA = -0.047 
    NSUB =  6e+16 
    NDEP = 2.44e+18 
    NSD =  2e+20 
    NGATE =  2e+20 
    GAMMA1 =      0 
    GAMMA2 =      0 
    VBX =      0 
    VBM =     -3 
    XT = 1.55e-07 
    K1 =    0.4 
    KT1 =  -0.11 
    KT1L =      0 
    KT2 =  0.022 
    K2 =  -0.01 
    K3 =      0 
    K3B =      0 
    LPE0 =      0 
    LPEB =      0 
    DVTP0 =  1e-11 
    DVTP1 =   0.05 
    W0 = 2.5e-06 
    DVT0 =      1 
    DVT1 =      2 
    DVT2 = -0.032 
    DVT0W =      0 
    DVT1W =      0 
    DVT2W =      0 
    DROUT =   0.56 
    DSUB =    0.1 
    VTH0 = -0.3842 
    EU =      1 
    UA =  2e-09 
    UA1 = 4.31e-09 
    UB =  5e-19 
    UB1 = 7.61e-18 
    UC =      0 
    UC1 = -5.6e-11 
    U0 =   0.02 
    UTE =   -1.5 
    VOFF = -0.126 
    VOFFL =      0 
    MINV =   0.05 
    FPROUT =    0.2 
    PDITS =   0.08 
    PDITSD =   0.23 
    PDITSL = 2.3e+06 
    DELTA =   0.01 
    RDSW =    155 
    RDSWMIN =      0 
    RDWMIN =      0 
    RSWMIN =      0 
    RDW =     75 
    RSW =     75 
    PRWG =      0 
    PRWB =      0 
    PRT =      0 
    ETA0 = 0.0055 
    ETAB =      0 
    PCLM =   0.12 
    PDIBLC1 =  0.001 
    PDIBLC2 =  0.001 
    PDIBLCB = 3.4e-08 
    PSCBE1 = 8.14e+08 
    PSCBE2 = 9.58e-07 
    PVAG =  1e-20 
    WR =      1 
    DWG =      0 
    DWB =      0 
    XW =      0 
    XWREF =      0 
    XL = -2e-08 
    XLREF = -2e-08 
    B0 =      0 
    B1 =      0 
    ALPHA0 =  0.074 
    ALPHA1 =  0.005 
    AGIDL = 0.0002 
    BGIDL = 2.1e+09 
    CGIDL = 0.0002 
    PHIN =      0 
    EGIDL =    0.8 
    AIGC = 0.01069 
    BIGC = 0.001261 
    CIGC = 0.0008 
    AIGSD = 0.01069 
    BIGSD = 0.001261 
    CIGSD = 0.0008 
    AIGBACC =  0.012 
    BIGBACC = 0.0028 
    CIGBACC =  0.002 
    AIGBINV =  0.014 
    BIGBINV =  0.004 
    CIGBINV =  0.004 
    NIGC =      1 
    NIGBINV =      3 
    NIGBACC =      1 
    NTOX =      1 
    EIGBINV =    1.1 
    PIGCD =      1 
    POXEDGE =      1 
    XRCRG1 =     12 
    TNOIA =    1.5 
    TNOIB =    3.5 
    NTNOI =      1 
    XRCRG2 =      5 
    BETA0 =     30 
    IJTHDFWD =   0.01 
    IJTHSFWD =   0.01 
    IJTHDREV =  0.001 
    IJTHSREV =  0.001 
    XJBVD =      1 
    XJBVS =      1 
    BVD =     10 
    BVS =     10 
    VFB =   0.55 
    GBMIN =  1e-10 
    RBDB =     15 
    RBPB =      5 
    RBSB =     15 
    RBPS =     15 
    RBPD =     15 
    CGSL = 2.653e-10 
    CGDL = 2.653e-10 
    CKAPPAS =   0.03 
    CKAPPAD =   0.03 
    CF = 1.267e-10 
    CLC =  1e-07 
    CLE =    0.6 
    DWC =  5e-09 
    DLC = 3.75e-09 
    DLCIG = 3.75e-09 
    DWJ =      0 
    VFBCV =     -1 
    ACDE =      1 
    MOIN =     15 
    NOFF =    0.9 
    VOFFCV =   0.02 
    DMCG =      0 
    DMCI =      0 
    DMDG =      0 
    DMCGT =      0 
    XGW =      0 
    XGL =      0 
    RSHG =    0.4 
    NGCON =      1 
    TCJ =  0.001 
    TPB =  0.005 
    TCJSW =  0.001 
    TPBSW =  0.005 
    TCJSWG =  0.001 
    TPBSWG =  0.005 
    SK0 =      0 
    SK1 =      0 
    SK2 =      0 
    SL =  2e-06 
    SW =  2e-06 
    K =      0 
    TNOM =  300.1 
    CGSO = 1.1e-10 
    CGDO = 1.1e-10 
    CGBO = 2.56e-11 
    XPART =      0 
    RSH =      5 
    JSS = 0.0001 
    JSWS =  1e-11 
    JSWGS =  1e-10 
    PBS =      1 
    MJS =    0.5 
    PBSWS =      1 
    MJSWS =   0.33 
    CJS = 0.0005 
    CJSWS =  5e-10 
    NJS =      1 
    PBSWGS =      1 
    MJSWGS =   0.33 
    CJSWGS =  3e-10 
    XTIS =      3 
    JSD = 0.0001 
    JSWD =  1e-11 
    JSWGD =  1e-10 
    PBD =      1 
    MJD =    0.5 
    PBSWD =      1 
    MJSWD =   0.33 
    CJD = 0.0005 
    CJSWD =  5e-10 
    NJD =      1 
    PBSWGD =      1 
    MJSWGD =   0.33 
    CJSWGD =  5e-10 
    XTID =      3 
    LMLT =      1 
    WMLT =      1 
    LINT = 3.75e-09 
    LL =      0 
    LLC =      0 
    LLN =      1 
    LW =      0 
    LWC =      0 
    LWN =      1 
    LWL =      0 
    LWLC =      0 
    LMIN =      0 
    LMAX =      1 
    WINT =  5e-09 
    WL =      0 
    WLC =      0 
    WLN =      1 
    WW =      0 
    WWC =      0 
    WWN =      1 
    WWL =      0 
    WWLC =      0 
    WMIN =      0 
    WMAX =      1 
    NOIA = 6.188e+40 
    NOIB = 1.5e+25 
    NOIC = 8.75e+09 
    EM = 4.1e+07 
    EF =      1 
    AF =      1 
    KF =      0 
    TRS =      0 
    TRD =      0 
 

  **info** (/home/sjz474/simulation/LOOKAHEAD/hspiceD/schematic/netlist/_graphical_stimuli.scs:1) DC voltage reset to initial transient source value              in source        0:vb<0>               new dc=  0.1800D+01
 Warning:  Acde = 1 may be too small in BSIM4 model nmos_vtg with w=7.2e-07 l=5e-08.

 Warning:  Acde = 1 may be too small in BSIM4 model nmos_vtg with w=7.2e-07 l=5e-08.

 Warning:  Acde = 1 may be too small in BSIM4 model nmos_vtg with w=1.44e-06 l=5e-08.

 Warning:  Acde = 1 may be too small in BSIM4 model nmos_vtg with w=2.8e-07 l=5e-08.

 Warning:  Acde = 1 may be too small in BSIM4 model nmos_vtg with w=1.63e-06 l=5e-08.

 Warning:  Acde = 1 may be too small in BSIM4 model nmos_vtg with w=1.63e-06 l=5e-08.

 Warning:  Acde = 1 may be too small in BSIM4 model pmos_vtg with w=1.56e-06 l=5e-08.

 Warning:  Acde = 1 may be too small in BSIM4 model pmos_vtg with w=1.56e-06 l=5e-08.

 Warning:  Acde = 1 may be too small in BSIM4 model pmos_vtg with w=1.96e-06 l=5e-08.

 Warning:  Acde = 1 may be too small in BSIM4 model pmos_vtg with w=3e-07 l=5e-08.

 Warning:  Acde = 1 may be too small in BSIM4 model pmos_vtg with w=1.44e-06 l=5e-08.

 Warning:  Acde = 1 may be too small in BSIM4 model pmos_vtg with w=1.44e-06 l=5e-08.

 
      
 *****************************************************************
 ******  option summary
 ******
 runlvl  = 3         bypass  = 2         
  Opening plot unit= 15
 file=LOOKAHEAD_layout.pa0                                                     


 **info** dc convergence failure, 
 resetting dcon option to 1 and retrying

 no convergence with standard algorithm,  trying damped pseudo-transient

  *** initial damped pseudo transient completed. ***
  *** final try started ***
 **info** dc convergence successful
  *** final try succeeded *** 
1****** HSPICE -- D-2010.03-SP2 32-BIT (Aug 26 2010) linux ******               
 ******  
 .include

  ******  operating point information tnom=  25.000 temp=  25.000 *****
 ***** operating point status is all       simulation time is     0.     
      node    =voltage        node    =voltage        node    =voltage

 +  0:a<0>    =   1.8000    0:a<1>    =   0.        0:a<2>    =   1.8000 
 +  0:a<3>    =   0.        0:a<4>    =   1.8000    0:a<5>    =   1.8000 
 +  0:a<6>    =   0.        0:a<7>    =   0.        0:b<0>    =   1.8000 
 +  0:b<1>    =   1.8000    0:b<2>    =   0.        0:b<3>    =   1.8000 
 +  0:b<4>    =   0.        0:b<5>    =   1.8000    0:b<6>    =   1.8000 
 +  0:b<7>    =   0.        0:cout    = 190.3633m   0:s<0>    =  20.5308m
 +  0:s<1>    =  32.4790m   0:s<2>    =  43.4274m   0:s<3>    =  57.6124m
 +  0:s<4>    =  68.9774m   0:s<5>    =   1.7800    0:s<6>    =  95.8590m
 +  0:s<7>    =   1.7957    0:vdd!    =   1.8000    1:n_net011=   1.7800 
 +  1:n_net011=   1.7800    1:n_net011=   1.7800    1:n_net011=   1.7800 
 +  1:n_net011=   1.7800    1:n_a<4>_x=   1.7999    1:n_net011=   1.7800 
 +  1:n_net011=   1.7800    1:n_net011=   1.7800    1:n_net011=   1.7800 
 +  1:n_net016= 191.2028m   1:n_net016= 191.2056m   1:n_net016= 191.0411m
 +  1:n_net016= 191.0411m   1:n_net016= 191.0411m   1:n_vdd!_x=   1.7808 
 +  1:n_net016= 191.0411m   1:n_net016= 191.0275m   1:n_net016= 191.0275m
 +  1:n_net016= 191.0411m   1:n_net016= 191.0411m   1:n_net016= 191.0411m
 +  1:n_net016= 191.0275m   1:n_net016= 191.0411m   1:n_net016= 191.0410m
 +  1:n_net016= 191.0410m   1:n_xi41/n= 237.1721m   1:n_net016= 191.0274m
 +  1:n_net016= 191.0274m   1:n_net016= 191.0408m   1:n_net016= 191.0284m
 +  1:n_net016= 191.0402m   1:n_net016= 191.0274m   1:n_net016= 191.0284m
 +  1:n_net016= 191.0285m   1:n_net016= 191.0400m   1:n_net016= 191.0907m
 +  1:n_b<4>_x=  10.6990u   1:n_net016= 191.0910m   1:n_net016= 191.0899m
 +  1:n_net016= 191.0302m   1:n_net016= 191.1507m   1:n_net019= 190.9136m
 +  1:n_net019= 190.9136m   1:n_net019= 190.9136m   1:n_net019= 190.9136m
 +  1:n_net019= 190.8987m   1:n_net081=   1.7800    1:n_net019= 190.8987m
 +  1:n_net019= 190.9136m   1:n_net019= 190.9136m   1:n_net019= 190.9136m
 +  1:n_net019= 190.8987m   1:n_net019= 190.9136m   1:n_net019= 191.0336m
 +  1:n_net019= 191.0857m   1:n_net019= 191.0884m   1:n_net019= 190.9136m
 +  1:n_xi41/n= 237.2164m   1:n_net019= 190.8997m   1:n_net019= 190.9127m
 +  1:n_net019= 190.9135m   1:n_net019= 190.8986m   1:n_net019= 190.8986m
 +  1:n_net019= 190.8996m   1:n_net019= 190.8986m   1:n_net019= 190.9118m
 +  1:n_net019= 190.8986m   1:n_net019= 190.8998m   1:n_gnd!_x= 236.9541m
 +  1:n_net019= 190.9126m   1:n_net019= 190.9733m   1:n_net019= 190.9738m
 +  1:n_net019= 190.9725m   1:n_net019= 190.9128m   1:n_xi9/xi=  12.4840m
 +  1:n_xi9/xi=  12.4840m   1:n_net081=   1.7800    1:n_xi9/xi=  12.4843m
 +  1:n_xi9/xi=  12.4840m   1:n_xi41/n= 237.2943m   1:n_vdd!_x=   1.7808 
 +  1:n_xi75/n= 191.7232m   1:n_net012= 191.6605m   1:n_gnd!_x= 190.2963m
 +  1:n_xi75/n= 191.7214m   1:n_net013=   1.7957    1:n_net012= 191.7388m
 +  1:n_vdd!_x=   1.7974    1:n_xi75/n= 191.7504m   1:n_net013=   1.7957 
 +  1:n_net013=   1.7958    1:n_xi75/n= 191.8013m   1:n_gnd!_x= 190.2555m
 +  1:n_net013=   1.7958    1:n_xi75/n= 191.9217m   1:n_vdd!_x=   1.7974 
 +  1:n_xi76/n= 190.9901m   1:n_net013=   1.7954    1:n_gnd!_x= 190.2940m
 +  1:n_xi76/n= 190.9947m   1:n_net013=   1.7957    1:n_net013=   1.7954 
 +  1:n_vdd!_x=   1.7974    1:n_xi76/n= 191.0221m   1:n_net013=   1.7957 
 +  1:n_net7_x=   1.7958    1:n_xi76/n= 191.0738m   1:n_gnd!_x= 190.2548m
 +  1:n_net7_x=   1.7959    1:n_xi76/n= 191.1948m   1:n_vdd!_x=   1.7974 
 +  1:n_xi50/n=   1.7789    1:n_net082= 240.0323m   1:n_gnd!_x= 236.9562m
 +  1:n_xi50/n=   1.7789    1:n_net061= 240.0244m   1:n_net082= 240.0819m
 +  1:n_vdd!_x=   1.7807    1:n_xi50/n=   1.7790    1:n_net061= 240.0737m
 +  1:n_net066= 237.3309m   1:n_xi50/n=   1.7789    1:n_gnd!_x= 236.9567m
 +  1:n_net066= 237.3368m   1:n_xi50/n=   1.7789    1:n_vdd!_x=   1.7808 
 +  1:n_xi49/n=   1.7789    1:n_net096= 239.9617m   1:n_gnd!_x= 236.9554m
 +  1:n_xi49/n=   1.7789    1:n_net066= 237.4447m   1:n_net096= 240.0113m
 +  1:n_vdd!_x=   1.7807    1:n_xi49/n=   1.7789    1:n_net066= 237.4949m
 +  1:n_net070= 237.3305m   1:n_xi49/n=   1.7788    1:n_gnd!_x= 236.9563m
 +  1:n_net070= 237.3363m   1:n_xi49/n=   1.7789    1:n_vdd!_x=   1.7808 
 +  1:n_xi78/n=   1.7756    1:n_a<7>_x=   1.4330m   1:n_gnd!_x= 190.2603m
 +  1:n_xi78/n=   1.7757    1:n_b<7>_x= 991.7697u   1:n_a<7>_x=   1.7063m
 +  1:n_vdd!_x=   1.7970    1:n_xi78/n=   1.7761    1:n_b<7>_x=   1.2499m
 +  1:n_net015= 191.4832m   1:n_xi78/n=   1.7757    1:n_gnd!_x= 190.2619m
 +  1:n_net015= 191.4986m   1:n_xi78/n=   1.7758    1:n_vdd!_x=   1.7974 
 +  1:n_xi86/n=   1.7941    1:n_net015= 191.3897m   1:n_gnd!_x= 190.2578m
 +  1:n_xi86/n=   1.7941    1:n_net017= 191.4255m   1:n_net015= 191.4683m
 +  1:n_vdd!_x=   1.7980    1:n_xi86/n=   1.7941    1:n_net017= 191.5031m
 +  1:n_net017= 191.0875m   1:n_xi86/n=   1.7940    1:n_gnd!_x= 190.2581m
 +  1:n_net017= 191.1025m   1:n_xi86/n=   1.7940    1:n_vdd!_x=   1.7978 
 +  1:n_xi48/n=   1.7789    1:n_net068= 239.9573m   1:n_gnd!_x= 236.9519m
 +  1:n_xi48/n=   1.7789    1:n_net070= 237.4443m   1:n_net068= 240.0069m
 +  1:n_vdd!_x=   1.7807    1:n_xi48/n=   1.7789    1:n_net070= 237.4945m
 +  1:n_net074= 237.2661m   1:n_xi48/n=   1.7788    1:n_gnd!_x= 236.9544m
 +  1:n_net074= 237.2717m   1:n_xi48/n=   1.7789    1:n_vdd!_x=   1.7808 
 +  1:n_xi47/n= 237.1182m   1:n_net079=   1.7798    1:n_gnd!_x= 236.9439m
 +  1:n_xi47/n= 237.1196m   1:n_net074= 237.2671m   1:n_net079=   1.7798 
 +  1:n_vdd!_x=   1.7808    1:n_xi47/n= 237.1209m   1:n_net074= 237.2671m
 +  1:n_net15_=   1.7801    1:n_xi47/n= 237.1657m   1:n_gnd!_x= 236.9473m
 +  1:n_net15_=   1.7801    1:n_xi47/n= 237.2436m   1:n_vdd!_x=   1.7808 
 +  1:n_xi87/n=   1.7950    1:n_net015= 191.4229m   1:n_gnd!_x= 190.2549m
 +  1:n_xi87/n=   1.7950    1:n_net017= 191.2751m   1:n_net015= 191.5019m
 +  1:n_vdd!_x=   1.7990    1:n_xi87/n=   1.7951    1:n_net017= 191.3533m
 +  1:n_net017= 191.0938m   1:n_xi87/n=   1.7949    1:n_gnd!_x= 190.2570m
 +  1:n_net017= 191.1089m   1:n_xi87/n=   1.7950    1:n_vdd!_x=   1.7980 
 +  1:n_xi88/n=   1.7937    1:n_net015= 191.4328m   1:n_gnd!_x= 190.2473m
 +  1:n_xi88/n=   1.7937    1:n_net017= 191.2800m   1:n_net015= 191.5112m
 +  1:n_vdd!_x=   1.7977    1:n_xi88/n=   1.7938    1:n_net017= 191.3575m
 +  1:n_net016= 191.0789m   1:n_xi88/n=   1.7936    1:n_gnd!_x= 190.2536m
 +  1:n_net016= 191.0938m   1:n_xi88/n=   1.7937    1:n_vdd!_x=   1.7975 
 +  1:n_xi51/n= 237.3154m   1:n_a<5>_x=   1.7998    1:n_gnd!_x= 236.9182m
 +  1:n_xi51/n= 237.3180m   1:n_b<5>_x=   1.7999    1:n_a<5>_x=   1.7998 
 +  1:n_vdd!_x=   1.7808    1:n_xi51/n= 237.3333m   1:n_b<5>_x=   1.7999 
 +  1:n_net088=   1.7800    1:n_xi51/n= 237.3686m   1:n_gnd!_x= 236.9301m
 +  1:n_net088=   1.7800    1:n_xi51/n= 237.4464m   1:n_vdd!_x=   1.7808 
 +  1:n_xi58/n= 236.9370m   1:n_net014=   1.7798    1:n_gnd!_x= 236.7607m
 +  1:n_xi58/n= 236.9383m   1:n_net012= 191.2219m   1:n_net014=   1.7798 
 +  1:n_vdd!_x=   1.7807    1:n_xi58/n= 236.9397m   1:n_net012= 191.2219m
 +  1:n_net011=   1.7800    1:n_xi58/n= 236.9845m   1:n_gnd!_x= 236.8674m
 +  1:n_net011=   1.7800    1:n_xi58/n= 237.0625m   1:n_vdd!_x=   1.7807 
 +  1:n_xi89/n=   1.7934    1:n_net016= 191.4334m   1:n_gnd!_x= 190.2221m
 +  1:n_xi89/n=   1.7934    1:n_net016= 191.2647m   1:n_net016= 191.5117m
 +  1:n_vdd!_x=   1.7974    1:n_xi89/n=   1.7935    1:n_net016= 191.3421m
 +  1:n_net016= 191.0653m   1:n_xi89/n=   1.7933    1:n_gnd!_x= 190.2426m
 +  1:n_net016= 191.0802m   1:n_xi89/n=   1.7934    1:n_vdd!_x=   1.7974 
 +  1:n_xi90/n=   1.7933    1:n_net016= 191.4373m   1:n_gnd!_x= 190.1356m
 +  1:n_xi90/n=   1.7934    1:n_net016= 191.2510m   1:n_net016= 191.5155m
 +  1:n_vdd!_x=   1.7973    1:n_xi90/n=   1.7934    1:n_net016= 191.3284m
 +  1:n_net016= 191.0274m   1:n_xi90/n=   1.7933    1:n_gnd!_x= 190.2050m
 +  1:n_net016= 191.0411m   1:n_xi90/n=   1.7933    1:n_vdd!_x=   1.7974 
 +  1:n_xi9/xi=  12.4840m   1:n_a<0>_x=   1.7999    1:n_gnd!_x= 122.5917u
 +  1:n_gnd!_x= 101.7363m   1:n_s<0>_x=  20.5308m   1:n_b<0>_x=   1.7999 
 +  1:n_xi9/xi=  12.4844m   1:n_b<0>_x=   1.7988    1:n_xi9/xi=  12.4985m
 +  1:n_a<0>_x=   1.8000    1:n_vdd!_x=   1.7834    1:n_vdd!_x=   1.7648 
 +  1:n_s<0>_x=  20.5379m   1:n_b<0>_x=   1.7999    1:n_a<0>_x=   1.8000 
 +  1:n_a<0>_x=   1.8000    1:n_b<0>_x=   1.7988    1:n_xi10/x=   1.7543 
 +  1:n_a<1>_x=  41.1753u   1:n_gnd!_x=   3.0947m   1:n_xi10/n=   1.7995 
 +  1:n_b<1>_x=   1.8000    1:n_xi10/x=   1.7543    1:n_b<1>_x=   1.7999 
 +  1:n_xi10/x=   1.7543    1:n_a<1>_x=  40.9611u   1:n_vdd!_x=   1.7633 
 +  1:n_xi10/n=   1.7995    1:n_b<1>_x=   1.8000    1:n_a<1>_x=   5.2829u
 +  1:n_a<1>_x=  49.6391u   1:n_b<1>_x=   1.7999    1:n_xi10/x=  26.0041m
 +  1:n_xi10/n=   1.7993    1:n_gnd!_x=  15.7614m   1:n_s<1>_x=  32.4790m
 +  1:n_net030=   1.7762    1:n_xi10/x=  26.0045m   1:n_net030=   1.7754 
 +  1:n_xi10/x=  26.0168m   1:n_xi10/n=   1.7993    1:n_vdd!_x=   1.7634 
 +  1:n_s<1>_x=  32.4847m   1:n_net030=   1.7762    1:n_xi10/n=   1.7994 
 +  1:n_xi10/n=   1.7994    1:n_net030=   1.7754    1:n_xi11/x=  21.3319m
 +  1:n_a<2>_x=   1.7999    1:n_gnd!_x=  17.3762m   1:n_xi11/n=   1.7793 
 +  1:n_b<2>_x=  89.5914u   1:n_xi11/x=  21.3323m   1:n_b<2>_x= 601.5858u
 +  1:n_xi11/x=  21.3452m   1:n_a<2>_x=   1.8000    1:n_vdd!_x=   1.7634 
 +  1:n_xi11/n=   1.7793    1:n_b<2>_x=  89.3581u   1:n_a<2>_x=   1.8000 
 +  1:n_a<2>_x=   1.8000    1:n_b<2>_x= 611.4667u   1:n_xi11/x=  38.2000m
 +  1:n_xi11/n=   1.7792    1:n_gnd!_x=  30.1966m   1:n_s<2>_x=  43.4274m
 +  1:n_net037=   1.7765    1:n_xi11/x=  38.2004m   1:n_net037=   1.7758 
 +  1:n_xi11/x=  38.2093m   1:n_xi11/n=   1.7792    1:n_vdd!_x=   1.7635 
 +  1:n_s<2>_x=  43.4320m   1:n_net037=   1.7765    1:n_xi11/n=   1.7792 
 +  1:n_xi11/n=   1.7792    1:n_net037=   1.7758    1:n_xi12/x=   1.7545 
 +  1:n_a<3>_x=  40.7552u   1:n_gnd!_x=  31.7859m   1:n_xi12/n=   1.7995 
 +  1:n_b<3>_x=   1.8000    1:n_xi12/x=   1.7545    1:n_b<3>_x=   1.8000 
 +  1:n_xi12/x=   1.7545    1:n_a<3>_x=  40.5408u   1:n_vdd!_x=   1.7635 
 +  1:n_xi12/n=   1.7995    1:n_b<3>_x=   1.8000    1:n_a<3>_x=   6.2113u
 +  1:n_a<3>_x=  50.6057u   1:n_b<3>_x=   1.8000    1:n_xi12/x=  52.5254m
 +  1:n_xi12/n=   1.7994    1:n_gnd!_x=  44.5083m   1:n_s<3>_x=  57.6124m
 +  1:n_net056=   1.7768    1:n_xi12/x=  52.5257m   1:n_net056=   1.7762 
 +  1:n_xi12/x=  52.5352m   1:n_xi12/n=   1.7994    1:n_vdd!_x=   1.7637 
 +  1:n_s<3>_x=  57.6169m   1:n_net056=   1.7768    1:n_xi12/n=   1.7994 
 +  1:n_xi12/n=   1.7994    1:n_net056=   1.7762    1:n_xi13/x=  49.1337m
 +  1:n_a<4>_x=   1.7999    1:n_gnd!_x=  46.0922m   1:n_xi13/n=   1.7810 
 +  1:n_b<4>_x=  89.3968u   1:n_xi13/x=  49.1340m   1:n_b<4>_x= 607.9926u
 +  1:n_xi13/x=  49.1439m   1:n_a<4>_x=   1.8000    1:n_vdd!_x=   1.7637 
 +  1:n_xi13/n=   1.7810    1:n_b<4>_x=  89.1621u   1:n_a<4>_x=   1.8000 
 +  1:n_a<4>_x=   1.8000    1:n_b<4>_x= 617.8085u   1:n_xi13/x=  64.8933m
 +  1:n_xi13/n=   1.7809    1:n_gnd!_x=  58.6502m   1:n_s<4>_x=  68.9774m
 +  1:n_net19_=   1.7771    1:n_xi13/x=  64.8936m   1:n_net19_=   1.7766 
 +  1:n_xi13/x=  64.9005m   1:n_xi13/n=   1.7810    1:n_vdd!_x=   1.7639 
 +  1:n_s<4>_x=  68.9811m   1:n_net19_=   1.7772    1:n_xi13/n=   1.7810 
 +  1:n_xi13/n=   1.7810    1:n_net19_=   1.7766    1:n_xi14/x=  69.6605m
 +  1:n_a<5>_x=   1.8000    1:n_gnd!_x=  60.2410m   1:n_xi14/n=  76.5868m
 +  1:n_b<5>_x=   1.7999    1:n_xi14/x=  69.6608m   1:n_b<5>_x=   1.7993 
 +  1:n_xi14/x=  69.6688m   1:n_a<5>_x=   1.8000    1:n_vdd!_x=   1.7640 
 +  1:n_xi14/n=  76.5929m   1:n_b<5>_x=   1.7999    1:n_a<5>_x=   1.8000 
 +  1:n_a<5>_x=   1.8000    1:n_b<5>_x=   1.7993    1:n_xi14/x=   1.7596 
 +  1:n_xi14/n=  77.1686m   1:n_gnd!_x=  72.5509m   1:n_s<5>_x=   1.7800 
 +  1:n_net15_=   1.7801    1:n_xi14/x=   1.7596    1:n_net15_=   1.7801 
 +  1:n_xi14/x=   1.7596    1:n_xi14/n=  77.1685m   1:n_vdd!_x=   1.7642 
 +  1:n_s<5>_x=   1.7800    1:n_net15_=   1.7801    1:n_xi14/n=  77.1463m
 +  1:n_xi14/n=  77.1618m   1:n_net15_=   1.7801    1:n_xi15/x=   1.7551 
 +  1:n_a<6>_x=  40.9504u   1:n_gnd!_x=  74.1166m   1:n_xi15/n=   1.7996 
 +  1:n_b<6>_x=   1.8000    1:n_xi15/x=   1.7551    1:n_b<6>_x=   1.8000 
 +  1:n_xi15/x=   1.7552    1:n_a<6>_x=  40.7355u   1:n_vdd!_x=   1.7642 
 +  1:n_xi15/n=   1.7996    1:n_b<6>_x=   1.8000    1:n_a<6>_x=   6.3057u
 +  1:n_a<6>_x=  50.7005u   1:n_b<6>_x=   1.8000    1:n_xi15/x=  92.1477m
 +  1:n_xi15/n=   1.7995    1:n_gnd!_x=  86.4686m   1:n_s<6>_x=  95.8590m
 +  1:n_net11_=   1.7933    1:n_xi15/x=  92.1480m   1:n_net11_=   1.7928 
 +  1:n_xi15/x=  92.1542m   1:n_xi15/n=   1.7995    1:n_vdd!_x=   1.7645 
 +  1:n_s<6>_x=  95.8623m   1:n_net11_=   1.7933    1:n_xi15/n=   1.7996 
 +  1:n_xi15/n=   1.7996    1:n_net11_=   1.7928    1:n_xi16/x=   1.7473 
 +  1:n_a<7>_x=  41.2337u   1:n_gnd!_x=  88.0085m   1:n_xi16/n=   5.5871m
 +  1:n_b<7>_x=   1.2503u   1:n_xi16/x=   1.7473    1:n_b<7>_x= 632.7375u
 +  1:n_xi16/x=   1.7474    1:n_a<7>_x=  41.0244u   1:n_vdd!_x=   1.7645 
 +  1:n_xi16/n=   5.5916m   1:n_b<7>_x=   1.0410u   1:n_a<7>_x=   1.9078p
 +  1:n_a<7>_x=  16.4985p   1:n_b<7>_x= 626.0162u   1:n_xi16/x=   1.7565 
 +  1:n_xi16/n=   6.8635m   1:n_gnd!_x= 100.2676m   1:n_s<7>_x=   1.7957 
 +  1:n_net7_x=   1.7958    1:n_xi16/x=   1.7565    1:n_net7_x=   1.7958 
 +  1:n_xi16/x=   1.7565    1:n_xi16/n=   6.8633m   1:n_vdd!_x=   1.7651 
 +  1:n_s<7>_x=   1.7957    1:n_net7_x=   1.7958    1:n_xi16/n=   6.8296m
 +  1:n_xi16/n=   6.8503m   1:n_net7_x=   1.7958    1:n_net079=   1.7797 
 +  1:n_gnd!_x= 239.1834m   1:n_gnd!_x= 239.2405m   1:n_xi53/n= 240.1096m
 +  1:n_net088=   1.7797    1:n_xi53/n= 240.1412m   1:n_net079=   1.7798 
 +  1:n_vdd!_x=   1.7808    1:n_net088=   1.7798    1:n_vdd!_x=   1.7808 
 +  1:n_net010=   1.7800    1:n_xi53/n= 240.1614m   1:n_gnd!_x= 239.1849m
 +  1:n_net010=   1.7800    1:n_xi53/n= 240.2377m   1:n_vdd!_x=   1.7808 
 +  1:n_net068= 239.9292m   1:n_gnd!_x= 238.9338m   1:n_xi54/n=   1.7807 
 +  1:n_net088=   1.7799    1:n_xi54/n=   1.7807    1:n_net068= 239.9721m
 +  1:n_vdd!_x=   1.7808    1:n_net088=   1.7799    1:n_vdd!_x=   1.7808 
 +  1:n_net012= 239.4841m   1:n_xi54/n=   1.7806    1:n_gnd!_x= 239.0424m
 +  1:n_net012= 239.4922m   1:n_xi54/n=   1.7806    1:n_vdd!_x=   1.7808 
 +  1:n_net014=   1.7953    1:n_gnd!_x= 190.2584m   1:n_xi84/n=   1.7948 
 +  1:n_net015= 192.5612m   1:n_xi84/n=   1.7949    1:n_net014=   1.7953 
 +  1:n_vdd!_x=   1.7973    1:n_net015= 192.6275m   1:n_vdd!_x=   1.7973 
 +  1:n_net015= 191.0950m   1:n_xi84/n=   1.7947    1:n_gnd!_x= 190.2584m
 +  1:n_net015= 191.1086m   1:n_xi84/n=   1.7948    1:n_vdd!_x=   1.7973 
 +  1:n_net014= 191.5292m   1:n_gnd!_x= 190.2586m   1:n_xi85/n=   1.7960 
 +  1:n_net015= 192.5482m   1:n_xi85/n=   1.7961    1:n_net014= 191.5973m
 +  1:n_vdd!_x=   1.7973    1:n_net015= 192.6145m   1:n_vdd!_x=   1.7973 
 +  1:n_net017= 191.1043m   1:n_xi85/n=   1.7959    1:n_gnd!_x= 190.2592m
 +  1:n_net017= 191.1182m   1:n_xi85/n=   1.7960    1:n_vdd!_x=   1.7974 
 +  1:n_b<0>_x=   1.7997    1:n_gnd!_x= 239.2913m   1:n_xi17/n= 240.4525m
 +  1:n_a<0>_x=   1.7998    1:n_xi17/n= 240.4934m   1:n_b<0>_x=   1.7998 
 +  1:n_vdd!_x=   1.7830    1:n_a<0>_x=   1.7998    1:n_vdd!_x=   1.7822 
 +  1:n_net030=   1.7791    1:n_xi17/n= 240.5063m   1:n_gnd!_x= 239.2457m
 +  1:n_net030=   1.7791    1:n_xi17/n= 240.5826m   1:n_vdd!_x=   1.7812 
 +  1:n_b<1>_x=   1.7997    1:n_gnd!_x= 239.2524m   1:n_xi19/n=   1.7682 
 +  1:n_a<1>_x=   1.0833m   1:n_xi19/n=   1.7688    1:n_b<1>_x=   1.7998 
 +  1:n_vdd!_x=   1.7813    1:n_a<1>_x=   1.2963m   1:n_vdd!_x=   1.7809 
 +  1:n_net033= 239.6307m   1:n_xi19/n=   1.7683    1:n_gnd!_x= 239.2470m
 +  1:n_net033= 239.6356m   1:n_xi19/n=   1.7683    1:n_vdd!_x=   1.7809 
 +  1:n_net096= 239.9618m   1:n_gnd!_x= 190.2593m   1:n_xi55/n=   1.7949 
 +  1:n_net088=   1.7799    1:n_xi55/n=   1.7949    1:n_net096= 240.0095m
 +  1:n_vdd!_x=   1.7950    1:n_net088=   1.7799    1:n_vdd!_x=   1.7959 
 +  1:n_net010= 191.1821m   1:n_xi55/n=   1.7947    1:n_gnd!_x= 190.2592m
 +  1:n_net010= 191.1957m   1:n_xi55/n=   1.7948    1:n_vdd!_x=   1.7969 
 +  1:n_net061= 239.9624m   1:n_gnd!_x= 190.2592m   1:n_xi56/n=   1.7966 
 +  1:n_net088=   1.7799    1:n_xi56/n=   1.7966    1:n_net061= 240.0106m
 +  1:n_vdd!_x=   1.7968    1:n_net088=   1.7799    1:n_vdd!_x=   1.7970 
 +  1:n_net010= 191.1873m   1:n_xi56/n=   1.7965    1:n_gnd!_x= 190.2594m
 +  1:n_net010= 191.2012m   1:n_xi56/n=   1.7966    1:n_vdd!_x=   1.7972 
 +  1:n_net030=   1.7772    1:n_gnd!_x= 239.2729m   1:n_xi21/n= 240.1861m
 +  1:n_net034=   1.7797    1:n_xi21/n= 240.2172m   1:n_net030=   1.7773 
 +  1:n_vdd!_x=   1.7809    1:n_net034=   1.7798    1:n_vdd!_x=   1.7808 
 +  1:n_net022=   1.7800    1:n_xi21/n= 240.2378m   1:n_gnd!_x= 239.2435m
 +  1:n_net022=   1.7801    1:n_xi21/n= 240.3141m   1:n_vdd!_x=   1.7808 
 +  1:n_b<2>_x= 721.1319u   1:n_gnd!_x= 239.2483m   1:n_xi23/n=   1.7806 
 +  1:n_a<2>_x=   1.8000    1:n_xi23/n=   1.7806    1:n_b<2>_x= 935.2318u
 +  1:n_vdd!_x=   1.7808    1:n_a<2>_x=   1.8000    1:n_vdd!_x=   1.7808 
 +  1:n_net041= 239.6731m   1:n_xi23/n=   1.7805    1:n_gnd!_x= 239.2467m
 +  1:n_net041= 239.6787m   1:n_xi23/n=   1.7806    1:n_vdd!_x=   1.7808 
 +  1:n_net082= 239.9590m   1:n_gnd!_x= 190.2598m   1:n_xi57/n=   1.7970 
 +  1:n_net088=   1.7799    1:n_xi57/n=   1.7970    1:n_net082= 240.0073m
 +  1:n_vdd!_x=   1.7972    1:n_net088=   1.7799    1:n_vdd!_x=   1.7972 
 +  1:n_net012= 191.1063m   1:n_xi57/n=   1.7969    1:n_gnd!_x= 190.2593m
 +  1:n_net012= 191.1203m   1:n_xi57/n=   1.7970    1:n_vdd!_x=   1.7973 
 +  1:n_b<6>_x=   1.7996    1:n_gnd!_x= 190.2625m   1:n_xi64/n=   1.7827 
 +  1:n_a<6>_x=   1.2961m   1:n_xi64/n=   1.7834    1:n_b<6>_x=   1.7997 
 +  1:n_vdd!_x=   1.7972    1:n_a<6>_x=   1.5321m   1:n_vdd!_x=   1.7970 
 +  1:n_net014= 191.0890m   1:n_xi64/n=   1.7827    1:n_gnd!_x= 190.2613m
 +  1:n_net014= 191.1042m   1:n_xi64/n=   1.7828    1:n_vdd!_x=   1.7973 
 +  1:n_net022=   1.7797    1:n_gnd!_x= 239.2718m   1:n_xi30/n= 240.1969m
 +  1:n_net042=   1.7797    1:n_xi30/n= 240.2285m   1:n_net022=   1.7798 
 +  1:n_vdd!_x=   1.7808    1:n_net042=   1.7798    1:n_vdd!_x=   1.7808 
 +  1:n_net032=   1.7800    1:n_xi30/n= 240.2487m   1:n_gnd!_x= 239.2430m
 +  1:n_net032=   1.7800    1:n_xi30/n= 240.3249m   1:n_vdd!_x=   1.7808 
 +  1:n_net033= 239.8839m   1:n_gnd!_x= 239.2466m   1:n_xi27/n=   1.7807 
 +  1:n_net042=   1.7799    1:n_xi27/n=   1.7807    1:n_net033= 239.9269m
 +  1:n_vdd!_x=   1.7808    1:n_net042=   1.7799    1:n_vdd!_x=   1.7807 
 +  1:n_net031= 239.6718m   1:n_xi27/n=   1.7806    1:n_gnd!_x= 239.2455m
 +  1:n_net031= 239.6774m   1:n_xi27/n=   1.7806    1:n_vdd!_x=   1.7808 
 +  1:n_net010=   1.7796    1:n_gnd!_x= 190.3142m   1:n_xi65/n= 192.2732m
 +  1:n_net011=   1.7951    1:n_xi65/n= 192.3432m   1:n_net010=   1.7796 
 +  1:n_vdd!_x=   1.7973    1:n_net011=   1.7952    1:n_vdd!_x=   1.7973 
 +  1:n_net013=   1.7957    1:n_xi65/n= 192.3582m   1:n_gnd!_x= 190.2544m
 +  1:n_net013=   1.7957    1:n_xi65/n= 192.4781m   1:n_vdd!_x=   1.7973 
 +  1:n_net012= 239.7803m   1:n_gnd!_x= 190.2613m   1:n_xi66/n=   1.7972 
 +  1:n_net011=   1.7954    1:n_xi66/n=   1.7972    1:n_net012= 239.8287m
 +  1:n_vdd!_x=   1.7973    1:n_net011=   1.7954    1:n_vdd!_x=   1.7973 
 +  1:n_net012= 191.2027m   1:n_xi66/n=   1.7970    1:n_gnd!_x= 190.2597m
 +  1:n_net012= 191.2201m   1:n_xi66/n=   1.7971    1:n_vdd!_x=   1.7974 
 +  1:n_b<3>_x=   1.7997    1:n_gnd!_x= 239.2472m   1:n_xi34/n=   1.7679 
 +  1:n_a<3>_x=   1.2434m   1:n_xi34/n=   1.7685    1:n_b<3>_x=   1.7998 
 +  1:n_vdd!_x=   1.7807    1:n_a<3>_x=   1.4558m   1:n_vdd!_x=   1.7805 
 +  1:n_net065= 239.6293m   1:n_xi34/n=   1.7679    1:n_gnd!_x= 239.2461m
 +  1:n_net065= 239.6363m   1:n_xi34/n=   1.7680    1:n_vdd!_x=   1.7807 
 +  1:n_net032=   1.7797    1:n_gnd!_x= 239.2712m   1:n_xi33/n= 240.1963m
 +  1:n_net062=   1.7798    1:n_xi33/n= 240.2279m   1:n_net032=   1.7798 
 +  1:n_vdd!_x=   1.7807    1:n_net062=   1.7798    1:n_vdd!_x=   1.7807 
 +  1:n_net076=   1.7800    1:n_xi33/n= 240.2480m   1:n_gnd!_x= 239.2429m
 +  1:n_net076=   1.7800    1:n_xi33/n= 240.3243m   1:n_vdd!_x=   1.7808 
 +  1:n_net010= 191.5752m   1:n_gnd!_x= 190.2593m   1:n_xi67/n=   1.7972 
 +  1:n_net011=   1.7954    1:n_xi67/n=   1.7972    1:n_net010= 191.6429m
 +  1:n_vdd!_x=   1.7974    1:n_net011=   1.7954    1:n_vdd!_x=   1.7974 
 +  1:n_net012= 191.2029m   1:n_xi67/n=   1.7971    1:n_gnd!_x= 190.2596m
 +  1:n_net012= 191.2202m   1:n_xi67/n=   1.7971    1:n_vdd!_x=   1.7974 
 +  1:n_net010= 191.5661m   1:n_gnd!_x= 190.2597m   1:n_xi68/n=   1.7972 
 +  1:n_net011=   1.7954    1:n_xi68/n=   1.7972    1:n_net010= 191.6338m
 +  1:n_vdd!_x=   1.7974    1:n_net011=   1.7954    1:n_vdd!_x=   1.7974 
 +  1:n_net015= 191.2034m   1:n_xi68/n=   1.7971    1:n_gnd!_x= 190.2601m
 +  1:n_net015= 191.2208m   1:n_xi68/n=   1.7971    1:n_vdd!_x=   1.7974 
 +  1:n_net031= 239.9141m   1:n_gnd!_x= 239.2460m   1:n_xi36/n=   1.7807 
 +  1:n_net062=   1.7799    1:n_xi36/n=   1.7807    1:n_net031= 239.9571m
 +  1:n_vdd!_x=   1.7808    1:n_net062=   1.7799    1:n_vdd!_x=   1.7808 
 +  1:n_net063= 239.6719m   1:n_xi36/n=   1.7806    1:n_gnd!_x= 239.2452m
 +  1:n_net063= 239.6797m   1:n_xi36/n=   1.7806    1:n_vdd!_x=   1.7808 
 +  1:n_net041= 239.9332m   1:n_gnd!_x= 239.2455m   1:n_xi37/n=   1.7807 
 +  1:n_net062=   1.7799    1:n_xi37/n=   1.7807    1:n_net041= 239.9762m
 +  1:n_vdd!_x=   1.7808    1:n_net062=   1.7799    1:n_vdd!_x=   1.7808 
 +  1:n_net078= 239.6717m   1:n_xi37/n=   1.7806    1:n_gnd!_x= 239.2454m
 +  1:n_net078= 239.6795m   1:n_xi37/n=   1.7806    1:n_vdd!_x=   1.7808 
 +  1:n_net012= 191.3758m   1:n_gnd!_x= 190.2629m   1:n_xi69/n=   1.7972 
 +  1:n_net011=   1.7954    1:n_xi69/n=   1.7972    1:n_net012= 191.4436m
 +  1:n_vdd!_x=   1.7973    1:n_net011=   1.7954    1:n_vdd!_x=   1.7973 
 +  1:n_net012= 191.2055m   1:n_xi69/n=   1.7971    1:n_gnd!_x= 190.2623m
 +  1:n_net012= 191.2229m   1:n_xi69/n=   1.7971    1:n_vdd!_x=   1.7974 
 +  1:n_net014=   1.7796    1:n_gnd!_x= 190.3144m   1:n_xi70/n= 192.2739m
 +  1:n_net011=   1.7951    1:n_xi70/n= 192.3439m   1:n_net014=   1.7797 
 +  1:n_vdd!_x=   1.7973    1:n_net011=   1.7952    1:n_vdd!_x=   1.7973 
 +  1:n_net014=   1.7957    1:n_xi70/n= 192.3589m   1:n_gnd!_x= 190.2543m
 +  1:n_net014=   1.7957    1:n_xi70/n= 192.4787m   1:n_vdd!_x=   1.7973 
 +  1:n_b<4>_x= 691.4965u   1:n_gnd!_x= 239.2467m   1:n_xi42/n=   1.7806 
 +  1:n_a<4>_x=   1.8000    1:n_xi42/n=   1.7806    1:n_b<4>_x= 905.6091u
 +  1:n_vdd!_x=   1.7808    1:n_a<4>_x=   1.8000    1:n_vdd!_x=   1.7808 
 +  1:n_net082= 239.6796m   1:n_xi42/n=   1.7805    1:n_gnd!_x= 239.2464m
 +  1:n_net082= 239.6875m   1:n_xi42/n=   1.7805    1:n_vdd!_x=   1.7808 
 +  1:n_net076=   1.7797    1:n_gnd!_x= 239.2711m   1:n_xi43/n= 240.1963m
 +  1:n_net081=   1.7798    1:n_xi43/n= 240.2279m   1:n_net076=   1.7798 
 +  1:n_vdd!_x=   1.7808    1:n_net081=   1.7798    1:n_vdd!_x=   1.7808 
 +  1:n_net079=   1.7800    1:n_xi43/n= 240.2480m   1:n_gnd!_x= 239.2428m
 +  1:n_net079=   1.7800    1:n_xi43/n= 240.3243m   1:n_vdd!_x=   1.7808 
 +  1:n_b<7>_x=   1.0490m   1:n_gnd!_x= 190.2599m   1:n_xi77/n=   1.7892 
 +  1:n_a<7>_x=   1.4567m   1:n_xi77/n=   1.7900    1:n_b<7>_x=   1.2873m
 +  1:n_vdd!_x=   1.7971    1:n_a<7>_x=   1.6919m   1:n_vdd!_x=   1.7971 
 +  1:n_net015= 191.0486m   1:n_xi77/n=   1.7892    1:n_gnd!_x= 190.2583m
 +  1:n_net015= 191.0631m   1:n_xi77/n=   1.7893    1:n_vdd!_x=   1.7973 
 +  1:n_net013=   1.7953    1:n_gnd!_x= 190.2586m   1:n_xi79/n=   1.7948 
 +  1:n_net015= 192.5938m   1:n_xi79/n=   1.7949    1:n_net013=   1.7954 
 +  1:n_vdd!_x=   1.7973    1:n_net015= 192.6601m   1:n_vdd!_x=   1.7973 
 +  1:n_net015= 191.0936m   1:n_xi79/n=   1.7947    1:n_gnd!_x= 190.2583m
 +  1:n_net015= 191.1085m   1:n_xi79/n=   1.7948    1:n_vdd!_x=   1.7973 
 +  1:n_net063= 239.9240m   1:n_gnd!_x= 239.2455m   1:n_xi44/n=   1.7807 
 +  1:n_net081=   1.7799    1:n_xi44/n=   1.7807    1:n_net063= 239.9669m
 +  1:n_vdd!_x=   1.7808    1:n_net081=   1.7799    1:n_vdd!_x=   1.7808 
 +  1:n_net068= 239.6716m   1:n_xi44/n=   1.7806    1:n_gnd!_x= 239.2449m
 +  1:n_net068= 239.6794m   1:n_xi44/n=   1.7806    1:n_vdd!_x=   1.7808 
 +  1:n_net078= 239.9239m   1:n_gnd!_x= 239.2438m   1:n_xi45/n=   1.7807 
 +  1:n_net081=   1.7799    1:n_xi45/n=   1.7807    1:n_net078= 239.9669m
 +  1:n_vdd!_x=   1.7808    1:n_net081=   1.7799    1:n_vdd!_x=   1.7808 
 +  1:n_net096= 239.6770m   1:n_xi45/n=   1.7806    1:n_gnd!_x= 239.2443m
 +  1:n_net096= 239.6849m   1:n_xi45/n=   1.7806    1:n_vdd!_x=   1.7808 
 +  1:n_net012= 191.6146m   1:n_gnd!_x= 190.2572m   1:n_xi80/n=   1.7960 
 +  1:n_net015= 192.5917m   1:n_xi80/n=   1.7961    1:n_net012= 191.6827m
 +  1:n_vdd!_x=   1.7973    1:n_net015= 192.6580m   1:n_vdd!_x=   1.7973 
 +  1:n_net016= 191.1039m   1:n_xi80/n=   1.7959    1:n_gnd!_x= 190.2582m
 +  1:n_net016= 191.1194m   1:n_xi80/n=   1.7960    1:n_vdd!_x=   1.7973 
 +  1:n_net012= 191.6152m   1:n_gnd!_x= 190.2570m   1:n_xi81/n=   1.7960 
 +  1:n_net015= 192.5878m   1:n_xi81/n=   1.7961    1:n_net012= 191.6833m
 +  1:n_vdd!_x=   1.7973    1:n_net015= 192.6541m   1:n_vdd!_x=   1.7973 
 +  1:n_net016= 191.1040m   1:n_xi81/n=   1.7959    1:n_gnd!_x= 190.2582m
 +  1:n_net016= 191.1178m   1:n_xi81/n=   1.7960    1:n_vdd!_x=   1.7973 
 +  1:n_net065= 239.8915m   1:n_gnd!_x= 239.2409m   1:n_xi46/n=   1.7807 
 +  1:n_net081=   1.7799    1:n_xi46/n=   1.7807    1:n_net065= 239.9345m
 +  1:n_vdd!_x=   1.7808    1:n_net081=   1.7799    1:n_vdd!_x=   1.7808 
 +  1:n_net061= 239.6755m   1:n_xi46/n=   1.7806    1:n_gnd!_x= 239.2425m
 +  1:n_net061= 239.6834m   1:n_xi46/n=   1.7806    1:n_vdd!_x=   1.7808 
 +  1:n_b<5>_x=   1.7997    1:n_gnd!_x= 239.2548m   1:n_xi52/n= 240.4133m
 +  1:n_a<5>_x=   1.7997    1:n_xi52/n= 240.4541m   1:n_b<5>_x=   1.7998 
 +  1:n_vdd!_x=   1.7808    1:n_a<5>_x=   1.7997    1:n_vdd!_x=   1.7808 
 +  1:n_net014=   1.7800    1:n_xi52/n= 240.4669m   1:n_gnd!_x= 239.2280m
 +  1:n_net014=   1.7800    1:n_xi52/n= 240.5431m   1:n_vdd!_x=   1.7808 
 +  1:n_net015= 191.6163m   1:n_gnd!_x= 190.2570m   1:n_xi82/n=   1.7960 
 +  1:n_net015= 192.5807m   1:n_xi82/n=   1.7961    1:n_net015= 191.6844m
 +  1:n_vdd!_x=   1.7973    1:n_net015= 192.6470m   1:n_vdd!_x=   1.7973 
 +  1:n_net016= 191.1041m   1:n_xi82/n=   1.7959    1:n_gnd!_x= 190.2582m
 +  1:n_net016= 191.1179m   1:n_xi82/n=   1.7960    1:n_vdd!_x=   1.7973 
 +  1:n_net012= 191.6182m   1:n_gnd!_x= 190.2572m   1:n_xi83/n=   1.7960 
 +  1:n_net015= 192.5720m   1:n_xi83/n=   1.7961    1:n_net012= 191.6863m
 +  1:n_vdd!_x=   1.7973    1:n_net015= 192.6383m   1:n_vdd!_x=   1.7973 
 +  1:n_net015= 191.1044m   1:n_xi83/n=   1.7959    1:n_gnd!_x= 190.2583m
 +  1:n_net015= 191.1182m   1:n_xi83/n=   1.7960    1:n_vdd!_x=   1.7973 
 +  1:n_xi59/n= 236.9972m   1:n_xi59/n= 236.9949m   1:n_xi59/n= 236.9949m
 +  1:n_xi59/n= 236.9465m   1:n_xi59/n= 236.9505m   1:n_xi59/n= 236.9529m
 +  1:n_xi59/n= 236.9517m   1:n_xi59/n= 236.9465m   1:n_xi59/n= 236.9473m
 +  1:n_xi59/n= 236.9541m   1:n_xi59/n= 236.9508m   1:n_xi91/n=   1.7933 
 +  1:n_xi91/n=   1.7933    1:n_xi91/n=   1.7933    1:n_xi91/n=   1.7933 
 +  1:n_xi91/n=   1.7934    1:n_xi91/n=   1.7934    1:n_xi91/n=   1.7934 
 +  1:n_xi91/n=   1.7933    1:n_xi91/n=   1.7933    1:n_xi91/n=   1.7934 
 +  1:n_xi91/n=   1.7934    1:n_xi92/n=   1.7933    1:n_xi92/n=   1.7933 
 +  1:n_xi92/n=   1.7933    1:n_xi92/n=   1.7933    1:n_xi92/n=   1.7933 
 +  1:n_xi92/n=   1.7934    1:n_xi92/n=   1.7933    1:n_xi92/n=   1.7933 
 +  1:n_xi92/n=   1.7933    1:n_xi92/n=   1.7934    1:n_xi92/n=   1.7934 
 +  1:n_xi20/n= 238.5124m   1:n_xi20/n= 238.5101m   1:n_xi20/n= 238.5101m
 +  1:n_xi20/n= 238.4612m   1:n_xi20/n= 238.4660m   1:n_xi20/n= 238.4690m
 +  1:n_xi20/n= 238.4673m   1:n_xi20/n= 238.4612m   1:n_xi20/n= 238.4621m
 +  1:n_xi20/n= 238.4706m   1:n_xi20/n= 238.4664m   1:n_xi22/n= 237.8798m
 +  1:n_xi22/n= 237.8775m   1:n_xi22/n= 237.8775m   1:n_xi22/n= 237.8293m
 +  1:n_xi22/n= 237.8333m   1:n_xi22/n= 237.8356m   1:n_xi22/n= 237.8345m
 +  1:n_xi22/n= 237.8293m   1:n_xi22/n= 237.8301m   1:n_xi22/n= 237.8368m
 +  1:n_xi22/n= 237.8336m   1:n_xi61/n= 191.5999m   1:n_xi61/n= 191.5964m
 +  1:n_xi61/n= 191.5964m   1:n_xi61/n= 191.5205m   1:n_xi61/n= 191.5280m
 +  1:n_xi61/n= 191.5325m   1:n_xi61/n= 191.5299m   1:n_xi61/n= 191.5205m
 +  1:n_xi61/n= 191.5219m   1:n_xi61/n= 191.5349m   1:n_xi61/n= 191.5286m
 +  1:n_xi60/n= 191.8036m   1:n_xi60/n= 191.8001m   1:n_xi60/n= 191.8001m
 +  1:n_xi60/n= 191.7230m   1:n_xi60/n= 191.7317m   1:n_xi60/n= 191.7372m
 +  1:n_xi60/n= 191.7338m   1:n_xi60/n= 191.7230m   1:n_xi60/n= 191.7247m
 +  1:n_xi60/n= 191.7400m   1:n_xi60/n= 191.7324m   1:n_xi24/n= 237.2764m
 +  1:n_xi24/n= 237.2741m   1:n_xi24/n= 237.2741m   1:n_xi24/n= 237.2286m
 +  1:n_xi24/n= 237.2299m   1:n_xi24/n= 237.2302m   1:n_xi24/n= 237.2309m
 +  1:n_xi24/n= 237.2274m   1:n_xi24/n= 237.2289m   1:n_xi24/n= 237.2303m
 +  1:n_xi24/n= 237.2300m   1:n_xi31/n=   1.7789    1:n_xi31/n=   1.7789 
 +  1:n_xi31/n=   1.7789    1:n_xi31/n=   1.7789    1:n_xi31/n=   1.7790 
 +  1:n_xi31/n=   1.7790    1:n_xi31/n=   1.7790    1:n_xi31/n=   1.7789 
 +  1:n_xi31/n=   1.7789    1:n_xi31/n=   1.7790    1:n_xi31/n=   1.7790 
 +  1:n_xi62/n= 191.0790m   1:n_xi62/n= 191.0755m   1:n_xi62/n= 191.0755m
 +  1:n_xi62/n= 190.9979m   1:n_xi62/n= 191.0067m   1:n_xi62/n= 191.0121m
 +  1:n_xi62/n= 191.0088m   1:n_xi62/n= 190.9940m   1:n_xi62/n= 190.9999m
 +  1:n_xi62/n= 191.0148m   1:n_xi62/n= 191.0074m   1:n_xi63/n= 191.8662m
 +  1:n_xi63/n= 191.8627m   1:n_xi63/n= 191.8627m   1:n_xi63/n= 191.7853m
 +  1:n_xi63/n= 191.7943m   1:n_xi63/n= 191.8000m   1:n_xi63/n= 191.7964m
 +  1:n_xi63/n= 191.7853m   1:n_xi63/n= 191.7870m   1:n_xi63/n= 191.8030m
 +  1:n_xi63/n= 191.7950m   1:n_xi32/n= 237.1888m   1:n_xi32/n= 237.1865m
 +  1:n_xi32/n= 237.1866m   1:n_xi32/n= 237.1412m   1:n_xi32/n= 237.1424m
 +  1:n_xi32/n= 237.1425m   1:n_xi32/n= 237.1433m   1:n_xi32/n= 237.1403m
 +  1:n_xi32/n= 237.1415m   1:n_xi32/n= 237.1425m   1:n_xi32/n= 237.1424m
 +  1:n_xi35/n= 237.8389m   1:n_xi35/n= 237.8367m   1:n_xi35/n= 237.8367m
 +  1:n_xi35/n= 237.7875m   1:n_xi35/n= 237.7924m   1:n_xi35/n= 237.7954m
 +  1:n_xi35/n= 237.7937m   1:n_xi35/n= 237.7875m   1:n_xi35/n= 237.7884m
 +  1:n_xi35/n= 237.7969m   1:n_xi35/n= 237.7928m   1:n_xi71/n= 191.8003m
 +  1:n_xi71/n= 191.7968m   1:n_xi71/n= 191.7969m   1:n_xi71/n= 191.7198m
 +  1:n_xi71/n= 191.7284m   1:n_xi71/n= 191.7339m   1:n_xi71/n= 191.7305m
 +  1:n_xi71/n= 191.7198m   1:n_xi71/n= 191.7214m   1:n_xi71/n= 191.7367m
 +  1:n_xi71/n= 191.7291m   1:n_xi72/n= 191.8044m   1:n_xi72/n= 191.8009m
 +  1:n_xi72/n= 191.8010m   1:n_xi72/n= 191.7239m   1:n_xi72/n= 191.7325m
 +  1:n_xi72/n= 191.7380m   1:n_xi72/n= 191.7346m   1:n_xi72/n= 191.7239m
 +  1:n_xi72/n= 191.7255m   1:n_xi72/n= 191.7408m   1:n_xi72/n= 191.7332m
 +  1:n_xi39/n=   1.7789    1:n_xi39/n=   1.7789    1:n_xi39/n=   1.7789 
 +  1:n_xi39/n=   1.7789    1:n_xi39/n=   1.7790    1:n_xi39/n=   1.7790 
 +  1:n_xi39/n=   1.7790    1:n_xi39/n=   1.7789    1:n_xi39/n=   1.7789 
 +  1:n_xi39/n=   1.7790    1:n_xi39/n=   1.7790    1:n_xi40/n=   1.7789 
 +  1:n_xi40/n=   1.7789    1:n_xi40/n=   1.7789    1:n_xi40/n=   1.7789 
 +  1:n_xi40/n=   1.7789    1:n_xi40/n=   1.7789    1:n_xi40/n=   1.7789 
 +  1:n_xi40/n=   1.7789    1:n_xi40/n=   1.7789    1:n_xi40/n=   1.7789 
 +  1:n_xi40/n=   1.7789    1:n_xi73/n= 191.8044m   1:n_xi73/n= 191.8009m
 +  1:n_xi73/n= 191.8009m   1:n_xi73/n= 191.7238m   1:n_xi73/n= 191.7325m
 +  1:n_xi73/n= 191.7380m   1:n_xi73/n= 191.7345m   1:n_xi73/n= 191.7238m
 +  1:n_xi73/n= 191.7255m   1:n_xi73/n= 191.7408m   1:n_xi73/n= 191.7332m
 +  1:n_xi74/n= 191.8042m   1:n_xi74/n= 191.8007m   1:n_xi74/n= 191.8008m
 +  1:n_xi74/n= 191.7237m   1:n_xi74/n= 191.7323m   1:n_xi74/n= 191.7378m
 +  1:n_xi74/n= 191.7344m   1:n_xi74/n= 191.7237m   1:n_xi74/n= 191.7253m
 +  1:n_xi74/n= 191.7406m   1:n_xi74/n= 191.7330m   1:n_xi38/n= 237.1828m
 +  1:n_xi38/n= 237.1805m   1:n_xi38/n= 237.1806m   1:n_xi38/n= 237.1352m
 +  1:n_xi38/n= 237.1364m   1:n_xi38/n= 237.1365m   1:n_xi38/n= 237.1373m
 +  1:n_xi38/n= 237.1343m   1:n_xi38/n= 237.1355m   1:n_xi38/n= 237.1365m
 +  1:n_xi38/n= 237.1364m   1:n_xi41/n= 237.2178m   1:n_xi41/n= 237.2155m
 +  1:n_xi41/n= 237.2155m   1:n_xi41/n= 237.1700m   1:n_xi41/n= 237.1713m
 +  1:n_xi41/n= 237.1716m   1:n_xi41/n= 237.1723m   1:n_xi41/n= 237.1688m
 +  1:n_xi41/n= 237.1703m   1:n_xi41/n= 237.1717m   1:n_xi41/n= 237.1714m
 +  1:n_xi75/n= 191.8038m   1:n_xi75/n= 191.8003m   1:n_xi75/n= 191.8003m
 +  1:n_xi75/n= 191.7232m   1:n_xi75/n= 191.7318m   1:n_xi75/n= 191.7373m
 +  1:n_xi75/n= 191.7339m   1:n_xi75/n= 191.7232m   1:n_xi75/n= 191.7248m
 +  1:n_xi75/n= 191.7401m   1:n_xi75/n= 191.7325m   1:n_xi76/n= 191.0763m
 +  1:n_xi76/n= 191.0727m   1:n_xi76/n= 191.0728m   1:n_xi76/n= 190.9952m
 +  1:n_xi76/n= 191.0040m   1:n_xi76/n= 191.0093m   1:n_xi76/n= 191.0061m
 +  1:n_xi76/n= 190.9913m   1:n_xi76/n= 190.9971m   1:n_xi76/n= 191.0121m
 +  1:n_xi76/n= 191.0047m   1:n_xi50/n=   1.7789    1:n_xi50/n=   1.7789 
 +  1:n_xi50/n=   1.7789    1:n_xi50/n=   1.7789    1:n_xi50/n=   1.7790 
 +  1:n_xi50/n=   1.7790    1:n_xi50/n=   1.7790    1:n_xi50/n=   1.7789 
 +  1:n_xi50/n=   1.7789    1:n_xi50/n=   1.7790    1:n_xi50/n=   1.7790 
 +  1:n_xi49/n=   1.7789    1:n_xi49/n=   1.7789    1:n_xi49/n=   1.7789 
 +  1:n_xi49/n=   1.7789    1:n_xi49/n=   1.7789    1:n_xi49/n=   1.7789 
 +  1:n_xi49/n=   1.7789    1:n_xi49/n=   1.7789    1:n_xi49/n=   1.7789 
 +  1:n_xi49/n=   1.7789    1:n_xi49/n=   1.7789    1:n_xi78/n=   1.7758 
 +  1:n_xi78/n=   1.7758    1:n_xi78/n=   1.7758    1:n_xi78/n=   1.7757 
 +  1:n_xi78/n=   1.7758    1:n_xi78/n=   1.7759    1:n_xi78/n=   1.7758 
 +  1:n_xi78/n=   1.7756    1:n_xi78/n=   1.7757    1:n_xi78/n=   1.7759 
 +  1:n_xi78/n=   1.7758    1:n_xi86/n=   1.7940    1:n_xi86/n=   1.7940 
 +  1:n_xi86/n=   1.7940    1:n_xi86/n=   1.7941    1:n_xi86/n=   1.7941 
 +  1:n_xi86/n=   1.7941    1:n_xi86/n=   1.7941    1:n_xi86/n=   1.7941 
 +  1:n_xi86/n=   1.7941    1:n_xi86/n=   1.7941    1:n_xi86/n=   1.7941 
 +  1:n_xi48/n=   1.7789    1:n_xi48/n=   1.7789    1:n_xi48/n=   1.7789 
 +  1:n_xi48/n=   1.7789    1:n_xi48/n=   1.7789    1:n_xi48/n=   1.7789 
 +  1:n_xi48/n=   1.7789    1:n_xi48/n=   1.7789    1:n_xi48/n=   1.7789 
 +  1:n_xi48/n=   1.7789    1:n_xi48/n=   1.7789    1:n_xi47/n= 237.1671m
 +  1:n_xi47/n= 237.1648m   1:n_xi47/n= 237.1648m   1:n_xi47/n= 237.1195m
 +  1:n_xi47/n= 237.1206m   1:n_xi47/n= 237.1208m   1:n_xi47/n= 237.1216m
 +  1:n_xi47/n= 237.1185m   1:n_xi47/n= 237.1198m   1:n_xi47/n= 237.1208m
 +  1:n_xi47/n= 237.1207m   1:n_xi87/n=   1.7950    1:n_xi87/n=   1.7950 
 +  1:n_xi87/n=   1.7950    1:n_xi87/n=   1.7950    1:n_xi87/n=   1.7950 
 +  1:n_xi87/n=   1.7950    1:n_xi87/n=   1.7950    1:n_xi87/n=   1.7950 
 +  1:n_xi87/n=   1.7950    1:n_xi87/n=   1.7950    1:n_xi87/n=   1.7950 
 +  1:n_xi88/n=   1.7937    1:n_xi88/n=   1.7937    1:n_xi88/n=   1.7937 
 +  1:n_xi88/n=   1.7937    1:n_xi88/n=   1.7937    1:n_xi88/n=   1.7938 
 +  1:n_xi88/n=   1.7937    1:n_xi88/n=   1.7937    1:n_xi88/n=   1.7937 
 +  1:n_xi88/n=   1.7938    1:n_xi88/n=   1.7937    1:n_xi51/n= 237.3700m
 +  1:n_xi51/n= 237.3677m   1:n_xi51/n= 237.3678m   1:n_xi51/n= 237.3183m
 +  1:n_xi51/n= 237.3233m   1:n_xi51/n= 237.3263m   1:n_xi51/n= 237.3246m
 +  1:n_xi51/n= 237.3161m   1:n_xi51/n= 237.3194m   1:n_xi51/n= 237.3278m
 +  1:n_xi51/n= 237.3237m   1:n_xi58/n= 236.9859m   1:n_xi58/n= 236.9836m
 +  1:n_xi58/n= 236.9836m   1:n_xi58/n= 236.9382m   1:n_xi58/n= 236.9394m
 +  1:n_xi58/n= 236.9395m   1:n_xi58/n= 236.9404m   1:n_xi58/n= 236.9373m
 +  1:n_xi58/n= 236.9385m   1:n_xi58/n= 236.9396m   1:n_xi58/n= 236.9395m
 +  1:n_xi89/n=   1.7934    1:n_xi89/n=   1.7934    1:n_xi89/n=   1.7934 
 +  1:n_xi89/n=   1.7934    1:n_xi89/n=   1.7934    1:n_xi89/n=   1.7935 
 +  1:n_xi89/n=   1.7934    1:n_xi89/n=   1.7934    1:n_xi89/n=   1.7934 
 +  1:n_xi89/n=   1.7935    1:n_xi89/n=   1.7934    1:n_xi90/n=   1.7933 
 +  1:n_xi90/n=   1.7933    1:n_xi90/n=   1.7933    1:n_xi90/n=   1.7934 
 +  1:n_xi90/n=   1.7934    1:n_xi90/n=   1.7934    1:n_xi90/n=   1.7934 
 +  1:n_xi90/n=   1.7933    1:n_xi90/n=   1.7934    1:n_xi90/n=   1.7934 
 +  1:n_xi90/n=   1.7934    1:n_xi10/x=   1.7543    1:n_xi10/x=   1.7543 
 +  1:n_xi10/x=   1.7543    1:n_xi10/x=   1.7543    1:n_xi10/x=  26.0041m
 +  1:n_xi59/n= 236.9465m   1:n_xi10/x=  26.0041m   1:n_xi10/x=  26.0044m
 +  1:n_xi10/x=  26.0041m   1:n_xi11/x=  21.3319m   1:n_xi11/x=  21.3319m
 +  1:n_xi11/x=  21.3322m   1:n_xi11/x=  21.3319m   1:n_xi11/x=  38.2000m
 +  1:n_net010= 191.6191m   1:n_xi11/x=  38.2000m   1:n_xi11/x=  38.2003m
 +  1:n_xi11/x=  38.2000m   1:n_xi12/x=   1.7545    1:n_xi12/x=   1.7545 
 +  1:n_xi12/x=   1.7545    1:n_xi12/x=   1.7545    1:n_xi12/x=  52.5254m
 +  1:n_gnd!_x= 236.2807m   1:n_xi12/x=  52.5254m   1:n_xi12/x=  52.5256m
 +  1:n_xi12/x=  52.5254m   1:n_xi13/x=  49.1337m   1:n_xi13/x=  49.1337m
 +  1:n_xi13/x=  49.1339m   1:n_xi13/x=  49.1337m   1:n_xi13/x=  64.8933m
 +  1:n_gnd!_x= 236.9531m   1:n_xi13/x=  64.8933m   1:n_xi13/x=  64.8935m
 +  1:n_xi13/x=  64.8933m   1:n_xi14/x=  69.6605m   1:n_xi14/x=  69.6605m
 +  1:n_xi14/x=  69.6607m   1:n_xi14/x=  69.6605m   1:n_xi14/x=   1.7596 
 +  1:n_xi59/n= 236.9457m   1:n_xi14/x=   1.7596    1:n_xi14/x=   1.7596 
 +  1:n_xi14/x=   1.7596    1:n_xi15/x=   1.7551    1:n_xi15/x=   1.7551 
 +  1:n_xi15/x=   1.7551    1:n_xi15/x=   1.7551    1:n_xi15/x=  92.1477m
 +  1:n_net011=   1.7800    1:n_xi15/x=  92.1477m   1:n_xi15/x=  92.1479m
 +  1:n_xi15/x=  92.1477m   1:n_xi16/x=   1.7473    1:n_xi16/x=   1.7473 
 +  1:n_xi16/x=   1.7473    1:n_xi16/x=   1.7473    1:n_xi16/x=   1.7565 
 +  1:n_net010= 191.6889m   1:n_xi16/x=   1.7565    1:n_xi16/x=   1.7565 
 +  1:n_xi16/x=   1.7565    1:n_xi10/n=   1.7994    1:n_xi10/n=   1.7994 
 +  1:n_xi10/n=   1.7994    1:n_xi10/n=   1.7993    1:n_xi10/n=   1.7994 
 +  1:n_xi10/n=   1.7994    1:n_vdd!_x=   1.7805    1:n_xi10/n=   1.7994 
 +  1:n_xi10/n=   1.7994    1:n_xi10/n=   1.7994    1:n_xi11/n=   1.7792 
 +  1:n_xi11/n=   1.7792    1:n_xi11/n=   1.7792    1:n_xi11/n=   1.7792 
 +  1:n_xi11/n=   1.7792    1:n_xi11/n=   1.7792    1:n_vdd!_x=   1.7808 
 +  1:n_xi11/n=   1.7792    1:n_xi11/n=   1.7792    1:n_xi11/n=   1.7792 
 +  1:n_xi12/n=   1.7994    1:n_xi12/n=   1.7994    1:n_xi12/n=   1.7994 
 +  1:n_xi12/n=   1.7994    1:n_xi12/n=   1.7994    1:n_xi12/n=   1.7994 
 +  1:n_xi59/n= 236.9584m   1:n_xi12/n=   1.7994    1:n_xi12/n=   1.7995 
 +  1:n_xi12/n=   1.7995    1:n_xi13/n=   1.7810    1:n_xi13/n=   1.7810 
 +  1:n_xi13/n=   1.7810    1:n_xi13/n=   1.7810    1:n_xi13/n=   1.7810 
 +  1:n_xi13/n=   1.7810    1:n_net011=   1.7800    1:n_xi13/n=   1.7810 
 +  1:n_xi13/n=   1.7810    1:n_xi13/n=   1.7810    1:n_xi14/n=  77.1461m
 +  1:n_xi14/n=  77.1380m   1:n_xi14/n=  77.1356m   1:n_xi14/n=  77.1614m
 +  1:n_xi14/n=  77.1542m   1:n_xi14/n=  77.1443m   1:n_net011=   1.7799 
 +  1:n_xi14/n=  76.8656m   1:n_xi14/n=  76.8673m   1:n_xi15/n=   1.7996 
 +  1:n_xi15/n=   1.7996    1:n_xi15/n=   1.7996    1:n_xi15/n=   1.7995 
 +  1:n_xi15/n=   1.7996    1:n_xi15/n=   1.7996    1:n_xi15/n=   1.7996 
 +  1:n_xi59/n= 236.9958m   1:n_xi15/n=   1.7996    1:n_xi16/n=   6.8291m
 +  1:n_xi16/n=   6.8106m   1:n_xi16/n=   6.8052m   1:n_xi16/n=   6.8522m
 +  1:n_xi16/n=   6.8372m   1:n_xi16/n=   6.8249m   1:n_xi16/n=   6.2013m
 +  1:n_xi16/n=   6.2052m   1:n_gnd!_x= 236.6537m   1:n_xi53/n= 240.1628m
 +  1:n_xi53/n= 240.1606m   1:n_xi53/n= 240.1606m   1:n_xi53/n= 240.1286m
 +  1:n_xi53/n= 240.1321m   1:n_xi53/n= 240.1217m   1:n_xi53/n= 240.1183m
[...]
  vds         -2.3472m    835.3167u     -1.6062       1.2270     314.4458m
  vbs         92.4913u     -8.6712u     21.2812u     -4.9596u     -1.2270 
  vth       -383.3343m    410.8726m   -241.0070m    319.5904m    590.2189m
  vdsat     -601.8209m    624.7870m    -40.8051m     39.7700m     41.6674m
  vod         -1.2213       1.1936     238.4392m   -318.9119m   -276.5154m
  beta         7.4446m     17.0741m     20.3435m     51.9873m     30.9634m
  gam eff    400.0000m    400.0000m    400.0000m    400.0000m    400.0000m
  gm           1.9955u    377.8513n      4.5472u    745.4575n    944.8685n
  gds          4.4930m      6.0659m    698.3818n     63.6716n     78.1763n
  gmb          1.4900u    623.9461n      1.0403u    187.5406n    143.1776n
  cdtot        3.4689f      3.5432f      2.2161f      1.8611f      2.0032f
  cgtot        2.4036f      2.2703f      1.5579f      1.3165f      1.5789f
  cstot        2.1255f      2.0706f      2.7290f      2.1661f      1.9690f
  cbtot        3.1969f      3.2813f      3.9088f      3.1643f      2.6573f
  cgs          1.3262f      1.1776f    796.4468a    663.8759a    783.9713a
  cgd          1.0961f      1.1120f    500.6895a    425.7976a    662.9205a



 subckt     x1           x1           x1           x1           x1        
 element    1:mxi44/xi   1:mxi44/xi   1:mxi44/xi   1:mxi44/xi   1:mxi45/xi
 model      0:pmos_vtg   0:pmos_vtg   0:nmos_vtg   0:pmos_vtg   0:nmos_vtg
 region         Linear       Cutoff       Linear       Cutoff       Cutoff
  id        -430.1913n     -3.0133p      2.5771u   -121.5052n     27.0964n
  ibs          5.1923a      2.8505a     -3.7645a     -2.0993a     -3.3089a
  ibd        102.2770a    102.8338a   -432.5118a      1.5413p     -1.2271p
  vgs         -1.5408    -845.5580u      1.5413    -140.9747u    680.0652u
  vds        -96.5948u    -99.4791u    426.6774u     -1.5411       1.2270 
  vbs          5.7208u      2.8366u     -4.3727u      1.1215u     -3.2942u
  vth       -383.5168m   -383.5162m    410.9023m   -246.7841m    319.5899m
  vdsat     -575.1626m    -42.0932m    596.2503m    -40.8490m     39.7699m
  vod         -1.1573     382.6707m      1.1304     246.6432m   -318.9098m
  beta         7.6602m     11.4702m     17.7227m     20.1080m     51.9873m
  gam eff    400.0000m    400.0000m    400.0000m    400.0000m    400.0000m
  gm          91.2283n     84.0262p    225.5036n      3.2783u    745.5016n
  gds          4.4532m     30.2568n      6.0382m    491.1077n     63.6753n
  gmb         63.9046n     21.1304p    331.6500n    753.4067n    187.5517n
  cdtot        3.4652f      2.2603f      3.5367f      2.2317f      1.8611f
  cgtot        2.4122f      1.3575f      2.2728f      1.5574f      1.3165f
  cstot        2.1319f      1.9229f      2.0745f      2.7271f      2.1661f
  cbtot        3.1997f      3.2089f      3.2817f      3.9238f      3.1643f
  cgs          1.3355f    582.9623a      1.1816f    794.5039a    663.8769a
  cgd          1.0945f    582.8975a      1.1095f    501.7004a    425.7976a



 subckt     x1           x1           x1           x1           x1        
 element    1:mxi45/xi   1:mxi45/xi   1:mxi45/xi   1:mxi45/xi   1:mxi45/xi
 model      0:nmos_vtg   0:pmos_vtg   0:pmos_vtg   0:nmos_vtg   0:pmos_vtg
 region         Cutoff       Linear       Cutoff       Linear       Cutoff
  id          31.4474n   -430.1986n     -2.9962p      2.6134u   -121.4989n
  ibs         -1.2271p      3.7554a      1.9802a     -3.1560a     -2.3378a
  ibd         -1.5416p    100.8415a    101.3983a   -437.9462a      1.5413p
  vgs        313.7051m     -1.5408    -844.7615u      1.5413    -139.7841u
  vds        314.4472m    -96.5964u    -98.9168u    432.6914u     -1.5411 
  vbs         -1.2270       4.2910u      1.9705u     -3.7672u    884.3599n
  vth        590.2188m   -383.5165m   -383.5161m    410.9017m   -246.7846m
  vdsat       41.6675m   -575.1633m    -42.0932m    596.2515m    -40.8490m
  vod       -276.5137m     -1.1573     382.6713m      1.1304     246.6448m
  beta        30.9634m      7.6601m     11.4702m     17.7227m     20.1080m
  gam eff    400.0000m    400.0000m    400.0000m    400.0000m    400.0000m
  gm         944.9168n     91.2295n     83.5504p    228.6887n      3.2781u
  gds         78.1803n      4.4532m     30.2567n      6.0381m    491.0814n
  gmb        143.1848n     63.9056n     21.0108p    336.3245n    753.3686n
  cdtot        2.0032f      3.4652f      2.2603f      3.5366f      2.2317f
  cgtot        1.5789f      2.4122f      1.3575f      2.2728f      1.5574f
  cstot        1.9690f      2.1319f      1.9229f      2.0745f      2.7271f
  cbtot        2.6573f      3.1997f      3.2089f      3.2817f      3.9238f
  cgs        783.9716a      1.3355f    582.9618a      1.1816f    794.5031a
  cgd        662.9206a      1.0945f    582.8974a      1.1095f    501.7004a



 subckt     x1           x1           x1           x1           x1        
 element    1:mxi80/xi   1:mxi80/xi   1:mxi80/xi   1:mxi80/xi   1:mxi80/xi
 model      0:nmos_vtg   0:nmos_vtg   0:pmos_vtg   0:pmos_vtg   0:nmos_vtg
 region         Cutoff       Cutoff       Linear       Linear       Linear
  id           1.9904n      1.9930n     -5.3143u     -5.3630u      5.1332u
  ibs         -7.6770a    -95.9944f     67.6272a     56.5500a     -7.7063a
  ibd        -96.0132f     -1.6059p      1.2525f      1.2525f   -857.4864a
  vgs          1.3574m    -93.5273m     -1.6056      -1.6046       1.6056 
  vds         95.8618m      1.5099      -1.1791m     -1.1901m    845.7113u
  vbs         -7.6344u    -95.8694m     68.1969u     57.1687u     -8.6385u
  vth        403.7984m    318.1370m   -383.4331m   -383.4299m    410.8718m
  vdsat       40.6371m     39.7681m   -602.2097m   -601.8104m    625.3244m
  vod       -402.4409m   -411.6643m     -1.2222      -1.2212       1.1948 
  beta        44.1204m     52.1358m      7.4409m      7.4441m     17.0622m
  gam eff    400.0000m    400.0000m    400.0000m    400.0000m    400.0000m
  gm          55.4560n     56.3533n    997.8277n      1.0088u    381.4323n
  gds          5.9781n      5.0664n      4.5028m      4.5019m      6.0663m
  gmb         14.6691n     14.0246n    748.4304n    755.8764n    631.2519n
  cdtot        2.4238f      1.7486f      3.4713f      3.4711f      3.5434f
  cgtot        1.4917f      1.2474f      2.4035f      2.4036f      2.2703f
  cstot        2.1665f      2.1087f      2.1252f      2.1243f      2.0706f
  cbtot        3.5522f      3.0631f      3.1988f      3.1978f      3.2813f
  cgs        664.3081a    601.2265a      1.3254f      1.3256f      1.1775f
  cgd        600.5937a    419.5222a      1.0969f      1.0969f      1.1120f



 subckt     x1           x1           x1           x1           x1        
 element    1:mxi80/xi   1:mxi81/xi   1:mxi81/xi   1:mxi81/xi   1:mxi81/xi
 model      0:pmos_vtg   0:nmos_vtg   0:nmos_vtg   0:pmos_vtg   0:pmos_vtg
 region         Cutoff       Cutoff       Cutoff       Linear       Linear
  id        -163.9473n      1.9904n      1.9930n     -5.3209u     -5.3578u
  ibs          7.1678a     -7.5077a    -95.9915f     59.9818a     51.5444a
  ibd          1.6064p    -96.0104f     -1.6059p      1.2463f      1.2464f
  vgs         -1.3825m      1.3581m    -93.5284m     -1.6056      -1.6047 
  vds         -1.6062      95.8591m      1.5099      -1.1805m     -1.1889m
  vbs         15.2745u     -7.4660u    -95.8666m     60.5891u     52.1876u
  vth       -241.0062m    403.7985m    318.1357m   -383.4315m   -383.4291m
  vdsat      -40.8014m     40.6371m     39.7680m   -602.2128m   -601.8142m
  vod        239.6237m   -402.4404m   -411.6641m     -1.2222      -1.2212 
  beta        20.3435m     44.1204m     52.1359m      7.4408m      7.4440m
  gam eff    400.0000m    400.0000m    400.0000m    400.0000m    400.0000m
  gm           4.4075u     55.4567n     56.3540n    999.0443n      1.0078u
  gds        676.7460n      5.9782n      5.0664n      4.5028m      4.5019m
  gmb          1.0091u     14.6693n     14.0248n    749.3511n    755.1283n
  cdtot        2.2161f      2.4238f      1.7486f      3.4713f      3.4712f
  cgtot        1.5572f      1.4917f      1.2474f      2.4035f      2.4036f
  cstot        2.7281f      2.1665f      2.1087f      2.1252f      2.1243f
  cbtot        3.9090f      3.5522f      3.0631f      3.1988f      3.1978f
  cgs        795.5082a    664.3086a    601.2259a      1.3254f      1.3256f
  cgd        500.6716a    600.5958a    419.5221a      1.0969f      1.0969f



 subckt     x1           x1           x1           x1           x1        
 element    1:mxi81/xi   1:mxi81/xi   1:mxi46/xi   1:mxi46/xi   1:mxi46/xi
 model      0:nmos_vtg   0:pmos_vtg   0:nmos_vtg   0:nmos_vtg   0:pmos_vtg
 region         Linear       Cutoff       Cutoff       Cutoff       Linear
  id           5.1337u   -163.9308n     27.0761n     31.4315n   -430.1895n
  ibs         -7.6849a      5.6049a   -3.357e-19     -1.2271p      3.6780a
  ibd       -857.5534a      1.6064p     -1.2271p     -1.5416p    100.7613a
  vgs          1.6056      -1.3779m    650.6606u    313.6918m     -1.5408 
  vds        845.7993u     -1.6062       1.2270     314.4323m    -96.5937u
  vbs         -8.6172u     13.7228u   -337.4846n     -1.2270       4.2141u
  vth        410.8718m   -241.0056m    319.5879m    590.2219m   -383.5165m
  vdsat      625.3272m    -40.8014m     39.7699m     41.6674m   -575.1769m
  vod          1.1948     239.6277m   -318.9373m   -276.5302m     -1.1573 
  beta        17.0621m     20.3435m     51.9875m     30.9633m      7.6600m
  gam eff    400.0000m    400.0000m    400.0000m    400.0000m    400.0000m
  gm         381.4662n      4.4070u    744.9500n    944.4476n     91.2218n
  gds          6.0664m    676.6792n     63.6284n     78.1415n      4.4532m
  gmb        631.3152n      1.0090u    187.4163n    143.1138n     63.9025n
  cdtot        3.5434f      2.2161f      1.8611f      2.0032f      3.4652f
  cgtot        2.2703f      1.5572f      1.3165f      1.5789f      2.4122f
  cstot        2.0706f      2.7281f      2.1660f      1.9690f      2.1319f
  cbtot        3.2813f      3.9090f      3.1643f      2.6573f      3.1997f
  cgs          1.1775f    795.5055a    663.8576a    783.9695a      1.3355f
  cgd          1.1120f    500.6715a    425.7966a    662.9217a      1.0945f



 subckt     x1           x1           x1           x1           x1        
 element    1:mxi46/xi   1:mxi46/xi   1:mxi46/xi   1:mxi52/xi   1:mxi52/xi
 model      0:pmos_vtg   0:nmos_vtg   0:pmos_vtg   0:nmos_vtg   0:nmos_vtg
 region         Cutoff       Linear       Cutoff       Linear       Linear
  id          -2.9887p      2.6154u   -121.4986n      3.9862u      3.9485u
  ibs          2.1470a     -1.3457a     -2.1699a    -13.5015a   -598.7939a
  ibd        101.3183a   -436.4731a      1.5413p   -598.7907a     -1.1784f
  vgs       -842.9330u      1.5414    -139.5380u      1.5605       1.5598 
  vds        -98.6712u    433.0270u     -1.5411     581.9892u    576.5599u
  vbs          2.1365u     -1.9655u      1.0512u    -14.2370u   -596.2262u
  vth       -383.5161m    410.9013m   -246.7845m    410.8927m    411.0153m
  vdsat      -42.0932m    596.2525m    -40.8490m    605.0239m    604.6866m
  vod        382.6732m      1.1305     246.6449m      1.1496       1.1488 
  beta        11.4702m     17.7227m     20.1080m     19.8502m     19.8558m
  gam eff    400.0000m    400.0000m    400.0000m    400.0000m    400.0000m
  gm          83.3389p    228.8651n      3.2781u    332.1603n    329.7672n
  gds         30.2553n      6.0381m    491.0804n      6.8466m      6.8457m
  gmb         20.9576p    336.5852n    753.3670n    505.6489n    501.0371n
  cdtot        2.2603f      3.5366f      2.2317f      3.9241f      3.8764f
  cgtot        1.3575f      2.2728f      1.5574f      2.5739f      2.5739f
  cstot        1.9229f      2.0745f      2.7271f      2.3120f      2.3645f
  cbtot        3.2089f      3.2817f      3.9238f      3.5960f      3.6007f
  cgs        582.9607a      1.1816f    794.5028a      1.3373f      1.3373f
  cgd        582.8965a      1.1095f    501.7004a      1.2577f      1.2577f



 subckt     x1           x1           x1           x1           x1        
 element    1:mxi52/xi   1:mxi52/xi   1:mxi52/xi   1:mxi52/xi   1:mxi82/xi
 model      0:pmos_vtg   0:pmos_vtg   0:nmos_vtg   0:pmos_vtg   0:nmos_vtg
 region         Cutoff       Cutoff       Cutoff       Linear       Cutoff
  id         -52.8333n    -52.9199n     51.8179n     -4.6257u      1.9905n
  ibs        5.923e-19      1.4116a     19.7374a      4.7087a     -7.4999a
  ibd          1.5405p      1.5405p     -1.5409p    772.6266a    -96.0048f
  vgs         19.0279m     18.9675m      1.2390m     -1.5402       1.3592m
  vds         -1.5403      -1.5403       1.5408    -762.9102u     95.8536m
  vbs          3.7185u      4.5309u     12.5683u      5.4300u     -7.4583u
  vth       -246.8537m   -246.8539m    296.2236m   -383.4576m    403.7989m
  vdsat      -40.8107m    -40.8108m     39.5301m   -575.1331m     40.6371m
  vod        265.8816m    265.8214m   -294.9847m     -1.1568    -402.4397m
  beta        14.7430m     14.7430m     48.0110m     10.4488m     44.1204m
  gam eff    400.0000m    400.0000m    400.0000m    400.0000m    400.0000m
  gm           1.4377u      1.4400u      1.4158u    983.3246n     55.4575n
  gds        214.5661n    214.9144n    128.8384n      6.0591m      5.9786n
  gmb        334.2760n    334.8035n    351.0331n    687.0528n     14.6695n
  cdtot        1.5926f      1.5926f      1.6425f      4.7964f      2.4238f
  cgtot        1.1331f      1.1331f      1.1577f      3.2892f      1.4917f
  cstot        1.9122f      1.9113f      1.9448f      3.0123f      2.1665f
  cbtot        2.7598f      2.7588f      2.8302f      4.5394f      3.5522f
  cgs        571.3673a    571.4027a    586.3636a      1.8218f    664.3093a
  cgd        367.6932a    367.6940a    371.0718a      1.4919f    600.6001a



 subckt     x1           x1           x1           x1           x1        
 element    1:mxi82/xi   1:mxi82/xi   1:mxi82/xi   1:mxi82/xi   1:mxi82/xi
 model      0:nmos_vtg   0:pmos_vtg   0:pmos_vtg   0:nmos_vtg   0:pmos_vtg
 region         Cutoff       Linear       Linear       Linear       Cutoff
  id           1.9931n     -5.3227u     -5.3570u      5.1341u   -163.9267n
  ibs        -95.9860f     57.8151a     49.9446a     -7.7054a      5.0063a
  ibd         -1.6059p      1.2446f      1.2446f   -857.6369a      1.6064p
  vgs        -93.5299m     -1.6056      -1.6047       1.6056      -1.3768m
  vds          1.5099      -1.1809m     -1.1888m    845.8620u     -1.6062 
  vbs        -95.8610m     58.4330u     50.5957u     -8.6376u     13.1283u
  vth        318.1341m   -383.4310m   -383.4287m    410.8718m   -241.0055m
  vdsat       39.7680m   -602.2133m   -601.8178m    625.3280m    -40.8014m
  vod       -411.6640m     -1.2222      -1.2212       1.1948     239.6287m
  beta        52.1360m      7.4408m      7.4440m     17.0621m     20.3435m
  gam eff    400.0000m    400.0000m    400.0000m    400.0000m    400.0000m
  gm          56.3548n    999.3839n      1.0077u    381.4930n      4.4069u
  gds          5.0665n      4.5028m      4.5019m      6.0664m    676.6625n
  gmb         14.0250n    749.6074n    755.0229n    631.3614n      1.0090u
  cdtot        1.7486f      3.4713f      3.4712f      3.5434f      2.2161f
  cgtot        1.2474f      2.4035f      2.4036f      2.2703f      1.5572f
  cstot        2.1087f      2.1252f      2.1243f      2.0706f      2.7281f
  cbtot        3.0631f      3.1988f      3.1978f      3.2813f      3.9090f
  cgs        601.2249a      1.3254f      1.3256f      1.1775f    795.5050a
  cgd        419.5220a      1.0969f      1.0969f      1.1120f    500.6715a



 subckt     x1           x1           x1           x1           x1        
 element    1:mxi83/xi   1:mxi83/xi   1:mxi83/xi   1:mxi83/xi   1:mxi83/xi
 model      0:nmos_vtg   0:nmos_vtg   0:pmos_vtg   0:pmos_vtg   0:nmos_vtg
 region         Cutoff       Cutoff       Linear       Linear       Linear
  id           1.9905n      1.9931n     -5.3228u     -5.3582u      5.1353u
  ibs         -7.6389a    -95.9789f     56.2390a     48.1400a     -7.8040a
  ibd        -95.9977f     -1.6059p      1.2430f      1.2430f   -857.9384a
  vgs          1.3610m    -93.5315m     -1.6056      -1.6047       1.6056 
  vds         95.8464m      1.5099      -1.1809m     -1.1890m    846.0639u
  vbs         -7.5966u    -95.8540m     56.8646u     48.8000u     -8.7358u
  vth        403.7995m    318.1320m   -383.4307m   -383.4284m    410.8718m
  vdsat       40.6371m     39.7680m   -602.2132m   -601.8222m    625.3286m
  vod       -402.4385m   -411.6636m     -1.2222      -1.2212       1.1948 
  beta        44.1203m     52.1363m      7.4408m      7.4440m     17.0621m
  gam eff    400.0000m    400.0000m    400.0000m    400.0000m    400.0000m
  gm          55.4590n     56.3562n    999.4061n      1.0079u    381.5832n
  gds          5.9791n      5.0667n      4.5028m      4.5019m      6.0663m
  gmb         14.6699n     14.0254n    749.6248n    755.1798n    631.5115n
  cdtot        2.4238f      1.7486f      3.4713f      3.4712f      3.5434f
  cgtot        1.4917f      1.2474f      2.4035f      2.4036f      2.2703f
  cstot        2.1665f      2.1087f      2.1252f      2.1243f      2.0706f
  cbtot        3.5522f      3.0631f      3.1988f      3.1978f      3.2813f
  cgs        664.3104a    601.2238a      1.3254f      1.3255f      1.1775f
  cgd        600.6058a    419.5219a      1.0969f      1.0969f      1.1120f



 subckt     x1        
 element    1:mxi83/xi
 model      0:pmos_vtg
 region         Cutoff
  id        -163.9257n
  ibs          4.0213a
  ibd          1.6064p
  vgs         -1.3762m
  vds         -1.6062 
  vbs         12.1499u
  vth       -241.0052m
  vdsat      -40.8014m
  vod        239.6290m
  beta        20.3435m
  gam eff    400.0000m
  gm           4.4069u
  gds        676.6586n
  gmb          1.0090u
  cdtot        2.2161f
  cgtot        1.5572f
  cstot        2.7281f
  cbtot        3.9090f
  cgs        795.5051a
  cgd        500.6714a




          ***** job concluded
1****** HSPICE -- D-2010.03-SP2 32-BIT (Aug 26 2010) linux ******               
 ******  
 .include

  ******  job statistics summary tnom=  25.000 temp=  25.000 *****
 
 
 ******  Machine Information  ******
 CPU:
 model name	: Intel(R) Xeon(R) CPU E5-1620 0 @ 3.60GHz
 cpu MHz	: 1200.000
 
 OS:
 Linux version 2.6.32-358.6.2.el6.x86_64 (mockbuild@x86-022.build.eng.bos.redhat
 .com) (gcc version 4.4.7 20120313 (Red Hat 4.4.7-3) (GCC) ) #1 SMP Tue May 14 1
 5:48:21 EDT 2013


  ******  HSPICE Threads Information  ******

  Command Line Threads Count                  :     1
  Available CPU Count                         :     8
  Actual Model Evaluation(Load) Threads Count :     1
  Actual Solver Threads Count                 :     1


  ******  Circuit Statistics  ******
  # nodes       =   14115 # elements   =   46380
  # resistors   =   12922 # capacitors =   32925 # inductors   =       0
  # mutual_inds =       0 # vccs       =       0 # vcvs        =       0
  # cccs        =       0 # ccvs       =       0 # volt_srcs   =      17
  # curr_srcs   =       0 # diodes     =       0 # bjts        =       0
  # jfets       =       0 # mosfets    =     516 # U elements  =       0
  # T elements  =       0 # W elements =       0 # B elements  =       0
  # S elements  =       0 # P elements =       0 # va device   =       0


  ******  Runtime Statistics (seconds)  ******

  analysis           time    # points   tot. iter  conv.iter
  op point          22.91           1         858
  transient         70.82         101        2656         838 rev=        12
  readin             0.73
  errchk             0.27
  setup              0.71
  output             0.00


           total memory used        27632  kbytes
           total cpu time           95.38 seconds
           total elapsed time       96.67 seconds
           job started at     12:45:13 06/06/2013
           job ended   at     12:46:50 06/06/2013


 lic: Release hspice token(s) 
