Using: /usr/bin/time -p /vol/synopsys2010/hspice_vD-2010.03-SP2/hspice/linux/hspice KoggeStone_layout.sp
 ****** HSPICE -- D-2010.03-SP2 32-BIT (Aug 26 2010) linux ******               
  Copyright (C) 2010 Synopsys, Inc. All Rights Reserved.                        
  Unpublished-rights reserved under US copyright laws.
  This program is protected by law and is subject to the 
  terms and conditions of the license agreement from Synopsys.
  Use of this program is your acceptance to be bound by the 
  license agreement. HSPICE is the trademark of Synopsys, Inc.
  Input File: KoggeStone_layout.sp                                              
 lic:  
 lic: FLEXlm: v10.8 
 lic: USER:   jwe920               HOSTNAME: joker.ece.northwestern.edu 
 lic: HOSTID: 1803731fd9c9         PID:      28518 
 lic: Using FLEXlm license file: 
 lic: -1@cadfs.ece.northwestern.edu 
 lic: Checkout 1 hspice 
 lic: License/Maintenance for hspice will expire on 15-oct-2013/2012.06 
 lic: 2(in_use)/50(total) FLOATING license(s) on SERVER cadfs.ece.northwestern.e
 lic:   
 Init: read install configuration file: /vol/synopsys2010/hspice_vD-2010.03-SP2/hspice/meta.cfg
1****** HSPICE -- D-2010.03-SP2 32-BIT (Aug 26 2010) linux ******               
 ******  
 

  ******  circuit name directory
 circuit number to circuit name directory
   number circuitname                     definition         multiplier
        0 main circuit
        1 x1.                             koggestone         1.00 
        2 x1.x_pm_koggestone%xi121/net8.  pm_koggestone%xi121/net8
                                                                 1.00 
        3 x1.x_pm_koggestone%xi122/net8.  pm_koggestone%xi122/net8
                                                                 1.00 
        4 x1.x_pm_koggestone%xi115/net8.  pm_koggestone%xi115/net8
                                                                 1.00 
        5 x1.x_pm_koggestone%xi109/net8.  pm_koggestone%xi109/net8
                                                                 1.00 
        6 x1.x_pm_koggestone%xi103/net8.  pm_koggestone%xi103/net8
                                                                 1.00 
        7 x1.x_pm_koggestone%xi97/net8.   pm_koggestone%xi97/net8
                                                                 1.00 
        8 x1.x_pm_koggestone%xi91/net8.   pm_koggestone%xi91/net8
                                                                 1.00 
        9 x1.x_pm_koggestone%xi87/net8.   pm_koggestone%xi87/net8
                                                                 1.00 
       10 x1.x_pm_koggestone%xi83/net8.   pm_koggestone%xi83/net8
                                                                 1.00 
       11 x1.x_pm_koggestone%xi81/net8.   pm_koggestone%xi81/net8
                                                                 1.00 
       12 x1.x_pm_koggestone%xi98/net8.   pm_koggestone%xi98/net8
                                                                 1.00 
       13 x1.x_pm_koggestone%xi104/net8.  pm_koggestone%xi104/net8
                                                                 1.00 
       14 x1.x_pm_koggestone%xi82/net8.   pm_koggestone%xi82/net8
                                                                 1.00 
       15 x1.x_pm_koggestone%xi84/net8.   pm_koggestone%xi84/net8
                                                                 1.00 
       16 x1.x_pm_koggestone%xi100/net8.  pm_koggestone%xi100/net8
                                                                 1.00 
       17 x1.x_pm_koggestone%xi106/net8.  pm_koggestone%xi106/net8
                                                                 1.00 
       18 x1.x_pm_koggestone%xi90/net8.   pm_koggestone%xi90/net8
                                                                 1.00 
       19 x1.x_pm_koggestone%xi94/net8.   pm_koggestone%xi94/net8
                                                                 1.00 
       20 x1.x_pm_koggestone%xi112/net8.  pm_koggestone%xi112/net8
                                                                 1.00 
       21 x1.x_pm_koggestone%xi118/net8.  pm_koggestone%xi118/net8
                                                                 1.00 
       22 x1.x_pm_koggestone%xi95/net8.   pm_koggestone%xi95/net8
                                                                 1.00 
       23 x1.x_pm_koggestone%xi96/net8.   pm_koggestone%xi96/net8
                                                                 1.00 
       24 x1.x_pm_koggestone%xi88/net8.   pm_koggestone%xi88/net8
                                                                 1.00 
       25 x1.x_pm_koggestone%xi92/net8.   pm_koggestone%xi92/net8
                                                                 1.00 
       26 x1.x_pm_koggestone%xi110/net8.  pm_koggestone%xi110/net8
                                                                 1.00 
       27 x1.x_pm_koggestone%xi116/net8.  pm_koggestone%xi116/net8
                                                                 1.00 
       28 x1.x_pm_koggestone%xi85/net8.   pm_koggestone%xi85/net8
                                                                 1.00 
       29 x1.x_pm_koggestone%xi89/net8.   pm_koggestone%xi89/net8
                                                                 1.00 
       30 x1.x_pm_koggestone%xi99/net8.   pm_koggestone%xi99/net8
                                                                 1.00 
       31 x1.x_pm_koggestone%xi105/net8.  pm_koggestone%xi105/net8
                                                                 1.00 
       32 x1.x_pm_koggestone%xi93/net8.   pm_koggestone%xi93/net8
                                                                 1.00 
       33 x1.x_pm_koggestone%xi86/net8.   pm_koggestone%xi86/net8
                                                                 1.00 
       34 x1.x_pm_koggestone%xi111/net8.  pm_koggestone%xi111/net8
                                                                 1.00 
       35 x1.x_pm_koggestone%xi117/net8.  pm_koggestone%xi117/net8
                                                                 1.00 
       36 x1.x_pm_koggestone%xi102/net8.  pm_koggestone%xi102/net8
                                                                 1.00 
       37 x1.x_pm_koggestone%xi108/net8.  pm_koggestone%xi108/net8
                                                                 1.00 
       38 x1.x_pm_koggestone%xi101/net8.  pm_koggestone%xi101/net8
                                                                 1.00 
       39 x1.x_pm_koggestone%xi107/net8.  pm_koggestone%xi107/net8
                                                                 1.00 
       40 x1.x_pm_koggestone%xi114/net8.  pm_koggestone%xi114/net8
                                                                 1.00 
       41 x1.x_pm_koggestone%xi120/net8.  pm_koggestone%xi120/net8
                                                                 1.00 
       42 x1.x_pm_koggestone%xi113/net8.  pm_koggestone%xi113/net8
                                                                 1.00 
       43 x1.x_pm_koggestone%xi119/net8.  pm_koggestone%xi119/net8
                                                                 1.00 
       44 x1.x_pm_koggestone%xi5/net9.    pm_koggestone%xi5/net9
                                                                 1.00 
       45 x1.x_pm_koggestone%xi4/net9.    pm_koggestone%xi4/net9
                                                                 1.00 
       46 x1.x_pm_koggestone%xi3/net9.    pm_koggestone%xi3/net9
                                                                 1.00 
       47 x1.x_pm_koggestone%xi2/net9.    pm_koggestone%xi2/net9
                                                                 1.00 
       48 x1.x_pm_koggestone%xi1/net9.    pm_koggestone%xi1/net9
                                                                 1.00 
       49 x1.x_pm_koggestone%xi0/net9.    pm_koggestone%xi0/net9
                                                                 1.00 
       50 x1.x_pm_koggestone%xi7/net9.    pm_koggestone%xi7/net9
                                                                 1.00 
       51 x1.x_pm_koggestone%xi6/net9.    pm_koggestone%xi6/net9
                                                                 1.00 
       52 x1.x_pm_koggestone%xi13/net9.   pm_koggestone%xi13/net9
                                                                 1.00 
       53 x1.x_pm_koggestone%xi9/net9.    pm_koggestone%xi9/net9
                                                                 1.00 
       54 x1.x_pm_koggestone%xi12/net9.   pm_koggestone%xi12/net9
                                                                 1.00 
       55 x1.x_pm_koggestone%xi16/net9.   pm_koggestone%xi16/net9
                                                                 1.00 
       56 x1.x_pm_koggestone%xi11/net9.   pm_koggestone%xi11/net9
                                                                 1.00 
       57 x1.x_pm_koggestone%xi15/net9.   pm_koggestone%xi15/net9
                                                                 1.00 
       58 x1.x_pm_koggestone%xi10/net9.   pm_koggestone%xi10/net9
                                                                 1.00 
       59 x1.x_pm_koggestone%xi14/net9.   pm_koggestone%xi14/net9
                                                                 1.00 
       60 x1.x_pm_koggestone%xi60/net7.   pm_koggestone%xi60/net7
                                                                 1.00 
       61 x1.x_pm_koggestone%xi64/net7.   pm_koggestone%xi64/net7
                                                                 1.00 
       62 x1.x_pm_koggestone%xi79/net7.   pm_koggestone%xi79/net7
                                                                 1.00 
       63 x1.x_pm_koggestone%xi70/net7.   pm_koggestone%xi70/net7
                                                                 1.00 
       64 x1.x_pm_koggestone%xi71/net7.   pm_koggestone%xi71/net7
                                                                 1.00 
       65 x1.x_pm_koggestone%xi78/net7.   pm_koggestone%xi78/net7
                                                                 1.00 
       66 x1.x_pm_koggestone%xi77/net7.   pm_koggestone%xi77/net7
                                                                 1.00 
       67 x1.x_pm_koggestone%xi76/net7.   pm_koggestone%xi76/net7
                                                                 1.00 
       68 x1.x_pm_koggestone%xi80/net7.   pm_koggestone%xi80/net7
                                                                 1.00 
       69 x1.x_pm_koggestone%xi65/net7.   pm_koggestone%xi65/net7
                                                                 1.00 
       70 x1.x_pm_koggestone%xi61/net7.   pm_koggestone%xi61/net7
                                                                 1.00 
       71 x1.x_pm_koggestone%xi66/net7.   pm_koggestone%xi66/net7
                                                                 1.00 
       72 x1.x_pm_koggestone%xi62/net7.   pm_koggestone%xi62/net7
                                                                 1.00 
       73 x1.x_pm_koggestone%xi67/net7.   pm_koggestone%xi67/net7
                                                                 1.00 
       74 x1.x_pm_koggestone%xi63/net7.   pm_koggestone%xi63/net7
                                                                 1.00 
       75 x1.x_pm_koggestone%xi72/net7.   pm_koggestone%xi72/net7
                                                                 1.00 
       76 x1.x_pm_koggestone%xi68/net7.   pm_koggestone%xi68/net7
                                                                 1.00 
       77 x1.x_pm_koggestone%xi73/net7.   pm_koggestone%xi73/net7
                                                                 1.00 
       78 x1.x_pm_koggestone%xi69/net7.   pm_koggestone%xi69/net7
                                                                 1.00 
       79 x1.x_pm_koggestone%xi75/net7.   pm_koggestone%xi75/net7
                                                                 1.00 
       80 x1.x_pm_koggestone%xi74/net7.   pm_koggestone%xi74/net7
                                                                 1.00 
       81 x1.x_pm_koggestone%gnd!.        pm_koggestone%gnd!
                                                                 1.00 
       82 x1.x_pm_koggestone%vdd!.        pm_koggestone%vdd!
                                                                 1.00 
       83 x1.x_pm_koggestone%net5.        pm_koggestone%net5
                                                                 1.00 
       84 x1.x_pm_koggestone%net0228.     pm_koggestone%net0228
                                                                 1.00 
       85 x1.x_pm_koggestone%net0150.     pm_koggestone%net0150
                                                                 1.00 
       86 x1.x_pm_koggestone%net0153.     pm_koggestone%net0153
                                                                 1.00 
       87 x1.x_pm_koggestone%net0167.     pm_koggestone%net0167
                                                                 1.00 
       88 x1.x_pm_koggestone%net0236.     pm_koggestone%net0236
                                                                 1.00 
       89 x1.x_pm_koggestone%net0154.     pm_koggestone%net0154
                                                                 1.00 
       90 x1.x_pm_koggestone%net0151.     pm_koggestone%net0151
                                                                 1.00 
       91 x1.x_pm_koggestone%net0227.     pm_koggestone%net0227
                                                                 1.00 
       92 x1.x_pm_koggestone%net0225.     pm_koggestone%net0225
                                                                 1.00 
       93 x1.x_pm_koggestone%net0141.     pm_koggestone%net0141
                                                                 1.00 
       94 x1.x_pm_koggestone%net0138.     pm_koggestone%net0138
                                                                 1.00 
       95 x1.x_pm_koggestone%net0160.     pm_koggestone%net0160
                                                                 1.00 
       96 x1.x_pm_koggestone%net0232.     pm_koggestone%net0232
                                                                 1.00 
       97 x1.x_pm_koggestone%net0108.     pm_koggestone%net0108
                                                                 1.00 
       98 x1.x_pm_koggestone%net0105.     pm_koggestone%net0105
                                                                 1.00 
       99 x1.x_pm_koggestone%net0137.     pm_koggestone%net0137
                                                                 1.00 
      100 x1.x_pm_koggestone%net0116.     pm_koggestone%net0116
                                                                 1.00 
      101 x1.x_pm_koggestone%net0123.     pm_koggestone%net0123
                                                                 1.00 
      102 x1.x_pm_koggestone%net0122.     pm_koggestone%net0122
                                                                 1.00 
      103 x1.x_pm_koggestone%net0149.     pm_koggestone%net0149
                                                                 1.00 
      104 x1.x_pm_koggestone%net0132.     pm_koggestone%net0132
                                                                 1.00 
      105 x1.x_pm_koggestone%net25.       pm_koggestone%net25
                                                                 1.00 
      106 x1.x_pm_koggestone%net0158.     pm_koggestone%net0158
                                                                 1.00 
      107 x1.x_pm_koggestone%net0145.     pm_koggestone%net0145
                                                                 1.00 
      108 x1.x_pm_koggestone%net0221.     pm_koggestone%net0221
                                                                 1.00 
      109 x1.x_pm_koggestone%net0139.     pm_koggestone%net0139
                                                                 1.00 
      110 x1.x_pm_koggestone%net0215.     pm_koggestone%net0215
                                                                 1.00 
      111 x1.x_pm_koggestone%net0204.     pm_koggestone%net0204
                                                                 1.00 
      112 x1.x_pm_koggestone%net0220.     pm_koggestone%net0220
                                                                 1.00 
      113 x1.x_pm_koggestone%net0217.     pm_koggestone%net0217
                                                                 1.00 
      114 x1.x_pm_koggestone%net0195.     pm_koggestone%net0195
                                                                 1.00 
      115 x1.x_pm_koggestone%net0205.     pm_koggestone%net0205
                                                                 1.00 
      116 x1.x_pm_koggestone%net064.      pm_koggestone%net064
                                                                 1.00 
      117 x1.x_pm_koggestone%net20.       pm_koggestone%net20
                                                                 1.00 
      118 x1.x_pm_koggestone%net094.      pm_koggestone%net094
                                                                 1.00 
      119 x1.x_pm_koggestone%net0112.     pm_koggestone%net0112
                                                                 1.00 
      120 x1.x_pm_koggestone%net0109.     pm_koggestone%net0109
                                                                 1.00 
      121 x1.x_pm_koggestone%net0211.     pm_koggestone%net0211
                                                                 1.00 
      122 x1.x_pm_koggestone%net0208.     pm_koggestone%net0208
                                                                 1.00 
      123 x1.x_pm_koggestone%net095.      pm_koggestone%net095
                                                                 1.00 
      124 x1.x_pm_koggestone%net0106.     pm_koggestone%net0106
                                                                 1.00 
      125 x1.x_pm_koggestone%net0200.     pm_koggestone%net0200
                                                                 1.00 
      126 x1.x_pm_koggestone%net0100.     pm_koggestone%net0100
                                                                 1.00 
      127 x1.x_pm_koggestone%net097.      pm_koggestone%net097
                                                                 1.00 
      128 x1.x_pm_koggestone%net089.      pm_koggestone%net089
                                                                 1.00 
      129 x1.x_pm_koggestone%net0130.     pm_koggestone%net0130
                                                                 1.00 
      130 x1.x_pm_koggestone%net0202.     pm_koggestone%net0202
                                                                 1.00 
      131 x1.x_pm_koggestone%net0199.     pm_koggestone%net0199
                                                                 1.00 
      132 x1.x_pm_koggestone%net0196.     pm_koggestone%net0196
                                                                 1.00 
      133 x1.x_pm_koggestone%net0193.     pm_koggestone%net0193
                                                                 1.00 
      134 x1.x_pm_koggestone%net0121.     pm_koggestone%net0121
                                                                 1.00 
      135 x1.x_pm_koggestone%net086.      pm_koggestone%net086
                                                                 1.00 
      136 x1.x_pm_koggestone%net090.      pm_koggestone%net090
                                                                 1.00 
      137 x1.x_pm_koggestone%net079.      pm_koggestone%net079
                                                                 1.00 
      138 x1.x_pm_koggestone%cin.         pm_koggestone%cin
                                                                 1.00 
      139 x1.x_pm_koggestone%net0182.     pm_koggestone%net0182
                                                                 1.00 
      140 x1.x_pm_koggestone%net0185.     pm_koggestone%net0185
                                                                 1.00 
      141 x1.x_pm_koggestone%net0188.     pm_koggestone%net0188
                                                                 1.00 
      142 x1.x_pm_koggestone%net076.      pm_koggestone%net076
                                                                 1.00 
      143 x1.x_pm_koggestone%net098.      pm_koggestone%net098
                                                                 1.00 
      144 x1.x_pm_koggestone%net14.       pm_koggestone%net14
                                                                 1.00 
      145 x1.x_pm_koggestone%net068.      pm_koggestone%net068
                                                                 1.00 
      146 x1.x_pm_koggestone%net17.       pm_koggestone%net17
                                                                 1.00 
      147 x1.x_pm_koggestone%net11.       pm_koggestone%net11
                                                                 1.00 
      148 x1.x_pm_koggestone%net0190.     pm_koggestone%net0190
                                                                 1.00 
      149 x1.x_pm_koggestone%net085.      pm_koggestone%net085
                                                                 1.00 
      150 x1.x_pm_koggestone%net0176.     pm_koggestone%net0176
                                                                 1.00 
      151 x1.x_pm_koggestone%net088.      pm_koggestone%net088
                                                                 1.00 
      152 x1.x_pm_koggestone%net091.      pm_koggestone%net091
                                                                 1.00 
      153 x1.x_pm_koggestone%net061.      pm_koggestone%net061
                                                                 1.00 
      154 x1.x_pm_koggestone%s7.          pm_koggestone%s7   1.00 
      155 x1.x_pm_koggestone%s3.          pm_koggestone%s3   1.00 
      156 x1.x_pm_koggestone%s6.          pm_koggestone%s6   1.00 
      157 x1.x_pm_koggestone%s2.          pm_koggestone%s2   1.00 
      158 x1.x_pm_koggestone%s5.          pm_koggestone%s5   1.00 
      159 x1.x_pm_koggestone%s1.          pm_koggestone%s1   1.00 
      160 x1.x_pm_koggestone%s4.          pm_koggestone%s4   1.00 
      161 x1.x_pm_koggestone%s0.          pm_koggestone%s0   1.00 
      162 x1.x_pm_koggestone%b7.          pm_koggestone%b7   1.00 
      163 x1.x_pm_koggestone%a7.          pm_koggestone%a7   1.00 
      164 x1.x_pm_koggestone%b6.          pm_koggestone%b6   1.00 
      165 x1.x_pm_koggestone%a6.          pm_koggestone%a6   1.00 
      166 x1.x_pm_koggestone%b5.          pm_koggestone%b5   1.00 
      167 x1.x_pm_koggestone%a5.          pm_koggestone%a5   1.00 
      168 x1.x_pm_koggestone%b4.          pm_koggestone%b4   1.00 
      169 x1.x_pm_koggestone%a4.          pm_koggestone%a4   1.00 
      170 x1.x_pm_koggestone%b3.          pm_koggestone%b3   1.00 
      171 x1.x_pm_koggestone%a3.          pm_koggestone%a3   1.00 
      172 x1.x_pm_koggestone%b2.          pm_koggestone%b2   1.00 
      173 x1.x_pm_koggestone%a2.          pm_koggestone%a2   1.00 
      174 x1.x_pm_koggestone%b1.          pm_koggestone%b1   1.00 
      175 x1.x_pm_koggestone%a1.          pm_koggestone%a1   1.00 
      176 x1.x_pm_koggestone%b0.          pm_koggestone%b0   1.00 
      177 x1.x_pm_koggestone%a0.          pm_koggestone%a0   1.00 
      178 x1.x_pm_koggestone%cout.        pm_koggestone%cout
                                                                 1.00 
1****** HSPICE -- D-2010.03-SP2 32-BIT (Aug 26 2010) linux ******               
 ******  
 

  ******  mos   model parameters tnom=  25.000 temp=  25.000 *****
 
Model Name: nmos_vtg  

 BSIM4 Model (Level 54)

    MOBMOD = 0
    BINUNIT = 1
    PARAMCHK = 1
    CAPMOD = 2
    DIOMOD = 1
    RDSMOD = 0
    TRNQSMOD = 0
    ACNQSMOD = 0
    RBODYMOD = 1
    RGATEMOD = 1
    PERMOD = 1
    GEOMOD = 1
    RGEOMOD = 0
    FNOIMOD = 1
    TNOIMOD = 0
    IGCMOD = 1
    IGBMOD = 1
    STIMOD = 0
    VERSION =      4 
    TOXREF = 1.14e-09 
    TOXE = 1.14e-09 
    TOXP =  1e-09 
    TOXM = 1.14e-09 
    DTOX = 1.4e-10 
    EPSROX =    3.9 
    CDSC =      0 
    CDSCB =      0 
    CDSCD =      0 
    CIT =      0 
    NFACTOR =    2.1 
    XJ = 1.98e-08 
    VSAT = 1.23e+05 
    A0 =      1 
    AGS =      0 
    A1 =      0 
    A2 =      1 
    AT = 3.3e+04 
    KETA =   0.04 
    NSUB =  6e+16 
    NDEP = 3.4e+18 
    NSD =  2e+20 
    NGATE =  3e+20 
    GAMMA1 =      0 
    GAMMA2 =      0 
    VBX =      0 
    VBM =     -3 
    XT = 1.55e-07 
    K1 =    0.4 
    KT1 =  -0.11 
    KT1L =      0 
    KT2 =  0.022 
    K2 =      0 
    K3 =      0 
    K3B =      0 
    LPE0 =      0 
    LPEB =      0 
    DVTP0 =  1e-10 
    DVTP1 =    0.1 
    W0 = 2.5e-06 
    DVT0 =      1 
    DVT1 =      2 
    DVT2 =      0 
    DVT0W =      0 
    DVT1W =      0 
    DVT2W =      0 
    DROUT =    0.5 
    DSUB =    0.1 
    VTH0 = 0.4106 
    EU =   1.67 
    UA =  6e-10 
    UA1 = 4.31e-09 
    UB = 1.2e-18 
    UB1 = 7.61e-18 
    UC =      0 
    UC1 = -5.6e-11 
    U0 =  0.045 
    UTE =   -1.5 
    VOFF =  -0.13 
    VOFFL =      0 
    MINV =   0.05 
    FPROUT =    0.2 
    PDITS =   0.08 
    PDITSD =   0.23 
    PDITSL = 2.3e+06 
    DELTA =   0.01 
    RDSW =    155 
    RDSWMIN =      0 
    RDWMIN =      0 
    RSWMIN =      0 
    RDW =     80 
    RSW =     80 
    PRWG =      0 
    PRWB =      0 
    PRT =      0 
    ETA0 =  0.006 
    ETAB =      0 
    PCLM =   0.02 
    PDIBLC1 =  0.001 
    PDIBLC2 =  0.001 
    PDIBLCB = -0.005 
    PSCBE1 = 8.14e+08 
    PSCBE2 =  1e-07 
    PVAG =  1e-20 
    WR =      1 
    DWG =      0 
    DWB =      0 
    XW =      0 
    XWREF =      0 
    XL = -2e-08 
    XLREF = -2e-08 
    B0 =      0 
    B1 =      0 
    ALPHA0 =  0.074 
    ALPHA1 =  0.005 
    AGIDL = 0.0002 
    BGIDL = 2.1e+09 
    CGIDL = 0.0002 
    PHIN =      0 
    EGIDL =    0.8 
    AIGC =   0.02 
    BIGC = 0.0027 
    CIGC =  0.002 
    AIGSD =   0.02 
    BIGSD = 0.0027 
    CIGSD =  0.002 
    AIGBACC =  0.012 
    BIGBACC = 0.0028 
    CIGBACC =  0.002 
    AIGBINV =  0.014 
    BIGBINV =  0.004 
    CIGBINV =  0.004 
    NIGC =      1 
    NIGBINV =      3 
    NIGBACC =      1 
    NTOX =      1 
    EIGBINV =    1.1 
    PIGCD =      1 
    POXEDGE =      1 
    XRCRG1 =     12 
    TNOIA =    1.5 
    TNOIB =    3.5 
    NTNOI =      1 
    XRCRG2 =      5 
    BETA0 =     30 
    IJTHDFWD =   0.01 
    IJTHSFWD =   0.01 
    IJTHDREV =  0.001 
    IJTHSREV =  0.001 
    XJBVD =      1 
    XJBVS =      1 
    BVD =     10 
    BVS =     10 
    VFB =  -0.55 
    GBMIN =  1e-10 
    RBDB =     15 
    RBPB =      5 
    RBSB =     15 
    RBPS =     15 
    RBPD =     15 
    CGSL = 2.653e-10 
    CGDL = 2.653e-10 
    CKAPPAS =   0.03 
    CKAPPAD =   0.03 
    CF = 1.289e-10 
    CLC =  1e-07 
    CLE =    0.6 
    DWC =  5e-09 
    DLC = 3.75e-09 
    DLCIG = 3.75e-09 
    DWJ =      0 
    VFBCV =     -1 
    ACDE =      1 
    MOIN =     15 
    NOFF =    0.9 
    VOFFCV =   0.02 
    DMCG =      0 
    DMCI =      0 
    DMDG =      0 
    DMCGT =      0 
    XGW =      0 
    XGL =      0 
    RSHG =    0.4 
    NGCON =      1 
    TCJ =  0.001 
    TPB =  0.005 
    TCJSW =  0.001 
    TPBSW =  0.005 
    TCJSWG =  0.001 
    TPBSWG =  0.005 
    SK0 =      0 
    SK1 =      0 
    SK2 =      0 
    SL =  2e-06 
    SW =  2e-06 
    K =      0 
    TNOM =  300.1 
    CGSO = 1.1e-10 
    CGDO = 1.1e-10 
    CGBO = 2.56e-11 
    XPART =      0 
    RSH =      5 
    JSS = 0.0001 
    JSWS =  1e-11 
    JSWGS =  1e-10 
    PBS =      1 
    MJS =    0.5 
    PBSWS =      1 
    MJSWS =   0.33 
    CJS = 0.0005 
    CJSWS =  5e-10 
    NJS =      1 
    PBSWGS =      1 
    MJSWGS =   0.33 
    CJSWGS =  3e-10 
    XTIS =      3 
    JSD = 0.0001 
    JSWD =  1e-11 
    JSWGD =  1e-10 
    PBD =      1 
    MJD =    0.5 
    PBSWD =      1 
    MJSWD =   0.33 
    CJD = 0.0005 
    CJSWD =  5e-10 
    NJD =      1 
    PBSWGD =      1 
    MJSWGD =   0.33 
    CJSWGD =  5e-10 
    XTID =      3 
    LMLT =      1 
    WMLT =      1 
    LINT = 3.75e-09 
    LL =      0 
    LLC =      0 
    LLN =      1 
    LW =      0 
    LWC =      0 
    LWN =      1 
    LWL =      0 
    LWLC =      0 
    LMIN =      0 
    LMAX =      1 
    WINT =  5e-09 
    WL =      0 
    WLC =      0 
    WLN =      1 
    WW =      0 
    WWC =      0 
    WWN =      1 
    WWL =      0 
    WWLC =      0 
    WMIN =      0 
    WMAX =      1 
    NOIA = 6.25e+41 
    NOIB = 3.125e+26 
    NOIC = 8.75e+09 
    EM = 4.1e+07 
    EF =      1 
    AF =      1 
    KF =      0 
    TRS =      0 
    TRD =      0 
 

 
Model Name: pmos_vtg  

 BSIM4 Model (Level 54)

    MOBMOD = 0
    BINUNIT = 1
    PARAMCHK = 1
    CAPMOD = 2
    DIOMOD = 1
    RDSMOD = 0
    TRNQSMOD = 0
    ACNQSMOD = 0
    RBODYMOD = 1
    RGATEMOD = 1
    PERMOD = 1
    GEOMOD = 1
    RGEOMOD = 0
    FNOIMOD = 1
    TNOIMOD = 0
    IGCMOD = 1
    IGBMOD = 1
    STIMOD = 0
    VERSION =      4 
    TOXREF = 1.3e-09 
    TOXE = 1.26e-09 
    TOXP =  1e-09 
    TOXM = 1.26e-09 
    DTOX = 2.6e-10 
    EPSROX =    3.9 
    CDSC =      0 
    CDSCB =      0 
    CDSCD =      0 
    CIT =      0 
    NFACTOR =   2.22 
    XJ = 1.98e-08 
    VSAT = 6.2e+04 
    A0 =      1 
    AGS =  1e-20 
    A1 =      0 
    A2 =      1 
    AT = 3.3e+04 
    KETA = -0.047 
    NSUB =  6e+16 
    NDEP = 2.44e+18 
    NSD =  2e+20 
    NGATE =  2e+20 
    GAMMA1 =      0 
    GAMMA2 =      0 
    VBX =      0 
    VBM =     -3 
    XT = 1.55e-07 
    K1 =    0.4 
    KT1 =  -0.11 
    KT1L =      0 
    KT2 =  0.022 
    K2 =  -0.01 
    K3 =      0 
    K3B =      0 
    LPE0 =      0 
    LPEB =      0 
    DVTP0 =  1e-11 
    DVTP1 =   0.05 
    W0 = 2.5e-06 
    DVT0 =      1 
    DVT1 =      2 
    DVT2 = -0.032 
    DVT0W =      0 
    DVT1W =      0 
    DVT2W =      0 
    DROUT =   0.56 
    DSUB =    0.1 
    VTH0 = -0.3842 
    EU =      1 
    UA =  2e-09 
    UA1 = 4.31e-09 
    UB =  5e-19 
    UB1 = 7.61e-18 
    UC =      0 
    UC1 = -5.6e-11 
    U0 =   0.02 
    UTE =   -1.5 
    VOFF = -0.126 
    VOFFL =      0 
    MINV =   0.05 
    FPROUT =    0.2 
    PDITS =   0.08 
    PDITSD =   0.23 
    PDITSL = 2.3e+06 
    DELTA =   0.01 
    RDSW =    155 
    RDSWMIN =      0 
    RDWMIN =      0 
    RSWMIN =      0 
    RDW =     75 
    RSW =     75 
    PRWG =      0 
    PRWB =      0 
    PRT =      0 
    ETA0 = 0.0055 
    ETAB =      0 
    PCLM =   0.12 
    PDIBLC1 =  0.001 
    PDIBLC2 =  0.001 
    PDIBLCB = 3.4e-08 
    PSCBE1 = 8.14e+08 
    PSCBE2 = 9.58e-07 
    PVAG =  1e-20 
    WR =      1 
    DWG =      0 
    DWB =      0 
    XW =      0 
    XWREF =      0 
    XL = -2e-08 
    XLREF = -2e-08 
    B0 =      0 
    B1 =      0 
    ALPHA0 =  0.074 
    ALPHA1 =  0.005 
    AGIDL = 0.0002 
    BGIDL = 2.1e+09 
    CGIDL = 0.0002 
    PHIN =      0 
    EGIDL =    0.8 
    AIGC = 0.01069 
    BIGC = 0.001261 
    CIGC = 0.0008 
    AIGSD = 0.01069 
    BIGSD = 0.001261 
    CIGSD = 0.0008 
    AIGBACC =  0.012 
    BIGBACC = 0.0028 
    CIGBACC =  0.002 
    AIGBINV =  0.014 
    BIGBINV =  0.004 
    CIGBINV =  0.004 
    NIGC =      1 
    NIGBINV =      3 
    NIGBACC =      1 
    NTOX =      1 
    EIGBINV =    1.1 
    PIGCD =      1 
    POXEDGE =      1 
    XRCRG1 =     12 
    TNOIA =    1.5 
    TNOIB =    3.5 
    NTNOI =      1 
    XRCRG2 =      5 
    BETA0 =     30 
    IJTHDFWD =   0.01 
    IJTHSFWD =   0.01 
    IJTHDREV =  0.001 
    IJTHSREV =  0.001 
    XJBVD =      1 
    XJBVS =      1 
    BVD =     10 
    BVS =     10 
    VFB =   0.55 
    GBMIN =  1e-10 
    RBDB =     15 
    RBPB =      5 
    RBSB =     15 
    RBPS =     15 
    RBPD =     15 
    CGSL = 2.653e-10 
    CGDL = 2.653e-10 
    CKAPPAS =   0.03 
    CKAPPAD =   0.03 
    CF = 1.267e-10 
    CLC =  1e-07 
    CLE =    0.6 
    DWC =  5e-09 
    DLC = 3.75e-09 
    DLCIG = 3.75e-09 
    DWJ =      0 
    VFBCV =     -1 
    ACDE =      1 
    MOIN =     15 
    NOFF =    0.9 
    VOFFCV =   0.02 
    DMCG =      0 
    DMCI =      0 
    DMDG =      0 
    DMCGT =      0 
    XGW =      0 
    XGL =      0 
    RSHG =    0.4 
    NGCON =      1 
    TCJ =  0.001 
    TPB =  0.005 
    TCJSW =  0.001 
    TPBSW =  0.005 
    TCJSWG =  0.001 
    TPBSWG =  0.005 
    SK0 =      0 
    SK1 =      0 
    SK2 =      0 
    SL =  2e-06 
    SW =  2e-06 
    K =      0 
    TNOM =  300.1 
    CGSO = 1.1e-10 
    CGDO = 1.1e-10 
    CGBO = 2.56e-11 
    XPART =      0 
    RSH =      5 
    JSS = 0.0001 
    JSWS =  1e-11 
    JSWGS =  1e-10 
    PBS =      1 
    MJS =    0.5 
    PBSWS =      1 
    MJSWS =   0.33 
    CJS = 0.0005 
    CJSWS =  5e-10 
    NJS =      1 
    PBSWGS =      1 
    MJSWGS =   0.33 
    CJSWGS =  3e-10 
    XTIS =      3 
    JSD = 0.0001 
    JSWD =  1e-11 
    JSWGD =  1e-10 
    PBD =      1 
    MJD =    0.5 
    PBSWD =      1 
    MJSWD =   0.33 
    CJD = 0.0005 
    CJSWD =  5e-10 
    NJD =      1 
    PBSWGD =      1 
    MJSWGD =   0.33 
    CJSWGD =  5e-10 
    XTID =      3 
    LMLT =      1 
    WMLT =      1 
    LINT = 3.75e-09 
    LL =      0 
    LLC =      0 
    LLN =      1 
    LW =      0 
    LWC =      0 
    LWN =      1 
    LWL =      0 
    LWLC =      0 
    LMIN =      0 
    LMAX =      1 
    WINT =  5e-09 
    WL =      0 
    WLC =      0 
    WLN =      1 
    WW =      0 
    WWC =      0 
    WWN =      1 
    WWL =      0 
    WWLC =      0 
    WMIN =      0 
    WMAX =      1 
    NOIA = 6.188e+40 
    NOIB = 1.5e+25 
    NOIC = 8.75e+09 
    EM = 4.1e+07 
    EF =      1 
    AF =      1 
    KF =      0 
    TRS =      0 
    TRD =      0 
 

  **info** (/home/jwe920/simulation/KoggeStone/hspiceD/schematic/netlist/_graphical_stimuli.scs:1) DC voltage reset to initial transient source value              in source        0:vb7                 new dc=  0.0000D+00
  **warning** (KoggeStone.pex.netlist.pex:2778) Both nodes of element x1.x_pm_koggestone%gnd!.c4503 are connected together; Line ignored.
 Warning:  Acde = 1 may be too small in BSIM4 model nmos_vtg with w=1.63e-06 l=5e-08.

 Warning:  Acde = 1 may be too small in BSIM4 model nmos_vtg with w=1.63e-06 l=5e-08.

 Warning:  Acde = 1 may be too small in BSIM4 model nmos_vtg with w=1.44e-06 l=5e-08.

 Warning:  Acde = 1 may be too small in BSIM4 model nmos_vtg with w=2.8e-07 l=5e-08.

 Warning:  Acde = 1 may be too small in BSIM4 model nmos_vtg with w=7.2e-07 l=5e-08.

 Warning:  Acde = 1 may be too small in BSIM4 model nmos_vtg with w=7.2e-07 l=5e-08.

 Warning:  Acde = 1 may be too small in BSIM4 model pmos_vtg with w=1.44e-06 l=5e-08.

 Warning:  Acde = 1 may be too small in BSIM4 model pmos_vtg with w=1.44e-06 l=5e-08.

 Warning:  Acde = 1 may be too small in BSIM4 model pmos_vtg with w=1.96e-06 l=5e-08.

 Warning:  Acde = 1 may be too small in BSIM4 model pmos_vtg with w=3e-07 l=5e-08.

 Warning:  Acde = 1 may be too small in BSIM4 model pmos_vtg with w=1.56e-06 l=5e-08.

 Warning:  Acde = 1 may be too small in BSIM4 model pmos_vtg with w=1.56e-06 l=5e-08.

 
      
 *****************************************************************
 ******  option summary
 ******
 runlvl  = 3         bypass  = 2         
  Opening plot unit= 15
 file=KoggeStone_layout.pa0                                                    


 **info** dc convergence failure, 
 resetting dcon option to 1 and retrying

 no convergence with standard algorithm,  trying damped pseudo-transient

  *** initial damped pseudo transient completed. ***
  *** final try started ***
 **info** dc convergence successful
  *** final try succeeded *** 
1****** HSPICE -- D-2010.03-SP2 32-BIT (Aug 26 2010) linux ******               
 ******  
 

  ******  operating point information tnom=  25.000 temp=  25.000 *****
 ***** operating point status is all       simulation time is     0.     
      node    =voltage        node    =voltage        node    =voltage

 +  0:a0      =   1.8000    0:a1      =   0.        0:a2      =   1.8000 
 +  0:a3      =   0.        0:a4      =   1.8000    0:a5      =   1.8000 
 +  0:a6      =   0.        0:a7      =   0.        0:b0      =   1.8000 
 +  0:b1      =   1.8000    0:b2      =   0.        0:b3      =   1.8000 
 +  0:b4      =   0.        0:b5      =   1.8000    0:b6      =   1.8000 
 +  0:b7      =   0.        0:cin     =   0.        0:cout    = 140.1867m
 +  0:s0      = 224.3018m   0:s1      = 108.5724m   0:s2      = 107.2733m
 +  0:s3      = 110.2816m   0:s4      =  67.7555m   0:s5      =   1.5943 
 +  0:s6      =  68.5118m   0:s7      =   1.5934    0:vdd!    =   1.8000 
 +  1:n_gnd!_x=   4.3102m   1:n_xi90/n=   6.0809m   1:n_net013=   1.5953 
 +  1:n_xi90/n=   6.1440m   1:n_net5_x=   1.5942    1:n_vdd!_x=   1.5971 
 +  1:n_net013=   1.5954    1:n_vdd!_x=   1.5971    1:n_net011=   1.5958 
 +  1:n_xi90/n=   6.1580m   1:n_gnd!_x=   4.2465m   1:n_net011=   1.5958 
 +  1:n_xi90/n=   6.2668m   1:n_vdd!_x=   1.5971    1:n_net023=   1.5942 
 +  1:n_gnd!_x=   4.3027m   1:n_xi94/n=   6.0736m   1:n_net086=   1.5952 
 +  1:n_xi94/n=   6.1367m   1:n_net023=   1.5943    1:n_vdd!_x=   1.5971 
 +  1:n_net086=   1.5953    1:n_vdd!_x=   1.5971    1:n_net010=   1.5958 
 +  1:n_xi94/n=   6.1507m   1:n_gnd!_x=   4.2437m   1:n_net010=   1.5958 
 +  1:n_xi94/n=   6.2595m   1:n_vdd!_x=   1.5971    1:n_net020= 186.6289m
 +  1:n_gnd!_x=   4.2974m   1:n_xi112/=   1.7889    1:n_net090=  11.1262m
 +  1:n_xi112/=   1.7896    1:n_net020= 186.6991m   1:n_vdd!_x=   1.7963 
 +  1:n_net090=  11.3464m   1:n_vdd!_x=   1.7964    1:n_net010=   9.4721m
 +  1:n_xi112/=   1.7886    1:n_gnd!_x=   4.2980m   1:n_net010=   9.5668m
 +  1:n_xi112/=   1.7888    1:n_vdd!_x=   1.7966    1:n_net022=   1.5963 
 +  1:n_gnd!_x=   4.3231m   1:n_xi118/=   1.7829    1:n_net098=  11.4533m
 +  1:n_xi118/=   1.7835    1:n_net022=   1.5964    1:n_vdd!_x=   1.7965 
 +  1:n_net098=  11.6735m   1:n_vdd!_x=   1.7963    1:n_net097=   9.2399m
 +  1:n_xi118/=   1.7827    1:n_gnd!_x=   4.3135m   1:n_net097=   9.3299m
 +  1:n_xi118/=   1.7829    1:n_vdd!_x=   1.7966    1:n_net086=   1.5952 
 +  1:n_gnd!_x=   4.2550m   1:n_xi95/n=   1.5949    1:n_net095=   5.4926m
 +  1:n_xi95/n=   1.5950    1:n_net086=   1.5953    1:n_vdd!_x=   1.5971 
 +  1:n_net095=   5.5531m   1:n_vdd!_x=   1.5970    1:n_net079=   5.2498m
 +  1:n_xi95/n=   1.5948    1:n_gnd!_x=   4.2513m   1:n_net079=   5.2677m
 +  1:n_xi95/n=   1.5949    1:n_vdd!_x=   1.5971    1:n_cin_xi= 277.2445u
 +  1:n_gnd!_x=   4.2639m   1:n_xi96/n=   1.5959    1:n_net079=   5.8575m
 +  1:n_xi96/n=   1.5960    1:n_cin_xi= 341.2952u   1:n_vdd!_x=   1.5971 
 +  1:n_net079=   5.9178m   1:n_vdd!_x=   1.5971    1:n_net064=   4.9671m
 +  1:n_xi96/n=   1.5959    1:n_gnd!_x=   4.2567m   1:n_net064=   4.9801m
 +  1:n_xi96/n=   1.5959    1:n_vdd!_x=   1.5971    1:n_net015= 221.0460m
 +  1:n_gnd!_x=   4.3395m   1:n_xi88/n=   1.5953    1:n_net013=   1.7598 
 +  1:n_xi88/n=   1.5954    1:n_net015= 221.0587m   1:n_vdd!_x=   1.5972 
 +  1:n_net013=   1.7598    1:n_vdd!_x=   1.5971    1:n_net015=   4.9643m
 +  1:n_xi88/n=   1.5952    1:n_gnd!_x=   4.2596m   1:n_net015=   4.9773m
 +  1:n_xi88/n=   1.5952    1:n_vdd!_x=   1.5971    1:n_net015= 221.0664m
 +  1:n_gnd!_x=   4.3416m   1:n_xi92/n=   1.5951    1:n_net014=   1.7725 
 +  1:n_xi92/n=   1.5952    1:n_net015= 221.0791m   1:n_vdd!_x=   1.5971 
 +  1:n_net014=   1.7725    1:n_vdd!_x=   1.5971    1:n_net022=   4.9683m
 +  1:n_xi92/n=   1.5951    1:n_gnd!_x=   4.2645m   1:n_net022=   4.9813m
 +  1:n_xi92/n=   1.5951    1:n_vdd!_x=   1.5971    1:n_net014=   1.6707 
 +  1:n_gnd!_x=   4.5714m   1:n_xi110/=  14.1130m   1:n_net011=   1.7677 
 +  1:n_xi110/=  14.4684m   1:n_net014=   1.6709    1:n_vdd!_x=   1.7964 
 +  1:n_net011=   1.7679    1:n_vdd!_x=   1.7965    1:n_net013=   1.7881 
 +  1:n_xi110/=  14.4109m   1:n_gnd!_x=   4.2681m   1:n_net013=   1.7883 
 +  1:n_xi110/=  14.7983m   1:n_vdd!_x=   1.7965    1:n_net013= 221.4095m
 +  1:n_gnd!_x=   4.3256m   1:n_xi116/=   1.7888    1:n_net013=  10.6945m
 +  1:n_xi116/=   1.7895    1:n_net013= 221.4647m   1:n_vdd!_x=   1.7963 
 +  1:n_net013=  10.9152m   1:n_vdd!_x=   1.7964    1:n_net021=   9.4838m
 +  1:n_xi116/=   1.7886    1:n_gnd!_x=   4.3118m   1:n_net021=   9.5784m
 +  1:n_xi116/=   1.7888    1:n_vdd!_x=   1.7966    1:n_net25_=   1.7665 
 +  1:n_gnd!_x=   4.4163m   1:n_xi85/n=   1.5932    1:n_net015= 224.3333m
 +  1:n_xi85/n=   1.5934    1:n_net25_=   1.7667    1:n_vdd!_x=   1.5971 
 +  1:n_net015= 224.3452m   1:n_vdd!_x=   1.5970    1:n_net095=   5.0433m
 +  1:n_xi85/n=   1.5931    1:n_gnd!_x=   4.2767m   1:n_net095=   5.0572m
 +  1:n_xi85/n=   1.5932    1:n_vdd!_x=   1.5971    1:n_net013=   1.7574 
 +  1:n_gnd!_x=   4.5808m   1:n_xi89/n=  14.3188m   1:n_net25_=   1.7649 
 +  1:n_xi89/n=  14.6986m   1:n_net013=   1.7576    1:n_vdd!_x=   1.5971 
 +  1:n_net25_=   1.7651    1:n_vdd!_x=   1.5971    1:n_net013=   1.5958 
 +  1:n_xi89/n=  14.4585m   1:n_gnd!_x=   4.2757m   1:n_net013=   1.5958 
 +  1:n_xi89/n=  14.5611m   1:n_vdd!_x=   1.5971    1:n_net012=   1.7573 
 +  1:n_gnd!_x=   4.6083m   1:n_xi99/n=  15.2711m   1:n_net014=   1.7681 
 +  1:n_xi99/n=  15.6719m   1:n_net012=   1.7575    1:n_vdd!_x=   1.7966 
 +  1:n_net014=   1.7683    1:n_vdd!_x=   1.7966    1:n_net089=   1.7880 
 +  1:n_xi99/n=  15.5769m   1:n_gnd!_x=   4.2725m   1:n_net089=   1.7882 
 +  1:n_xi99/n=  15.9616m   1:n_vdd!_x=   1.7966    1:n_net012= 226.8015m
 +  1:n_gnd!_x=   4.3917m   1:n_xi105/=   1.7942    1:n_net012=   1.7573 
 +  1:n_xi105/=   1.7943    1:n_net012= 226.8545m   1:n_vdd!_x=   1.7965 
 +  1:n_net012=   1.7573    1:n_vdd!_x=   1.7966    1:n_net012=  10.4701m
 +  1:n_xi105/=   1.7939    1:n_gnd!_x=   4.3178m   1:n_net012=  10.5845m
 +  1:n_xi105/=   1.7941    1:n_vdd!_x=   1.7966    1:n_net014=   1.7698 
 +  1:n_gnd!_x=   4.5742m   1:n_xi93/n=  14.4756m   1:n_net013=   1.7561 
 +  1:n_xi93/n=  14.8620m   1:n_net014=   1.7700    1:n_vdd!_x=   1.5971 
 +  1:n_net013=   1.7563    1:n_vdd!_x=   1.5971    1:n_net086=   1.5958 
 +  1:n_xi93/n=  14.6166m   1:n_gnd!_x=   4.2612m   1:n_net086=   1.5958 
 +  1:n_xi93/n=  14.7192m   1:n_vdd!_x=   1.5971    1:n_cin_xi= 269.9074u
 +  1:n_gnd!_x=   4.2842m   1:n_xi86/n=   1.5959    1:n_net095=   5.3979m
 +  1:n_xi86/n=   1.5960    1:n_cin_xi= 333.9628u   1:n_vdd!_x=   1.5971 
 +  1:n_net095=   5.4584m   1:n_vdd!_x=   1.5971    1:n_net094=   4.9646m
 +  1:n_xi86/n=   1.5958    1:n_gnd!_x=   4.2543m   1:n_net094=   4.9776m
 +  1:n_xi86/n=   1.5959    1:n_vdd!_x=   1.5971    1:n_net011=   1.7656 
 +  1:n_gnd!_x=   4.4954m   1:n_xi111/=   1.7887    1:n_net012= 226.8894m
 +  1:n_xi111/=   1.7891    1:n_net011=   1.7658    1:n_vdd!_x=   1.7966 
 +  1:n_net012= 226.9414m   1:n_vdd!_x=   1.7965    1:n_net090=   9.9479m
 +  1:n_xi111/=   1.7884    1:n_gnd!_x=   4.3090m   1:n_net090=  10.0528m
 +  1:n_xi111/=   1.7886    1:n_vdd!_x=   1.7966    1:n_net013=  11.1650m
 +  1:n_gnd!_x=   4.3162m   1:n_xi117/=   1.7962    1:n_net011=   1.7646 
 +  1:n_xi117/=   1.7962    1:n_net013=  11.3866m   1:n_vdd!_x=   1.7966 
 +  1:n_net011=   1.7646    1:n_vdd!_x=   1.7966    1:n_net098=  10.2677m
 +  1:n_xi117/=   1.7958    1:n_gnd!_x=   4.3056m   1:n_net098=  10.3787m
 +  1:n_xi117/=   1.7960    1:n_vdd!_x=   1.7966    1:n_net5_x=   1.5941 
 +  1:n_gnd!_x=   4.4541m   1:n_xi102/=  11.6895m   1:n_net068=   1.7873 
 +  1:n_xi102/=  11.9688m   1:n_net5_x=   1.5941    1:n_vdd!_x=   1.5971 
 +  1:n_net068=   1.7875    1:n_vdd!_x=   1.5971    1:n_net018=   1.5959 
 +  1:n_xi102/=  11.8093m   1:n_gnd!_x=   4.2460m   1:n_net018=   1.5959 
 +  1:n_xi102/=  11.9139m   1:n_vdd!_x=   1.5971    1:n_net021=   1.5963 
 +  1:n_gnd!_x=   4.2376m   1:n_xi108/=   1.5950    1:n_net085=  10.0033m
 +  1:n_xi108/=   1.5951    1:n_net021=   1.5963    1:n_vdd!_x=   1.5971 
 +  1:n_net085=  10.0619m   1:n_vdd!_x=   1.5970    1:n_net018=   4.9349m
 +  1:n_xi108/=   1.5949    1:n_gnd!_x=   4.2311m   1:n_net018=   4.9479m
 +  1:n_xi108/=   1.5950    1:n_vdd!_x=   1.5971    1:n_net089=   1.7870 
 +  1:n_gnd!_x=   4.7420m   1:n_xi101/=  20.7713m   1:n_net013=   1.5952 
 +  1:n_xi101/=  21.3816m   1:n_net089=   1.7873    1:n_vdd!_x=   1.7966 
 +  1:n_net013=   1.5953    1:n_vdd!_x=   1.7965    1:n_net068=   1.7884 
 +  1:n_xi101/=  21.1133m   1:n_gnd!_x=   4.2665m   1:n_net068=   1.7885 
 +  1:n_xi101/=  21.4847m   1:n_vdd!_x=   1.7966    1:n_net012=  11.9056m
 +  1:n_gnd!_x=   4.2818m   1:n_xi107/=   1.7963    1:n_net086=   1.5954 
 +  1:n_xi107/=   1.7963    1:n_net012=  12.1266m   1:n_vdd!_x=   1.7967 
 +  1:n_net086=   1.5954    1:n_vdd!_x=   1.7968    1:n_net085=   9.7690m
 +  1:n_xi107/=   1.7960    1:n_gnd!_x=   4.2779m   1:n_net085=   9.8697m
 +  1:n_xi107/=   1.7962    1:n_vdd!_x=   1.7968    1:n_net020=   1.5963 
 +  1:n_gnd!_x=   4.1607m   1:n_xi114/=   1.5950    1:n_net088=   9.9739m
 +  1:n_xi114/=   1.5951    1:n_net020=   1.5963    1:n_vdd!_x=   1.5971 
 +  1:n_net088=  10.0326m   1:n_vdd!_x=   1.5970    1:n_net018=   4.8916m
 +  1:n_xi114/=   1.5949    1:n_gnd!_x=   4.1875m   1:n_net018=   4.9045m
 +  1:n_xi114/=   1.5950    1:n_vdd!_x=   1.5971    1:n_net020=   1.5962 
 +  1:n_gnd!_x=   3.9346m   1:n_xi120/=   1.5950    1:n_net091=  10.0592m
 +  1:n_xi120/=   1.5951    1:n_net020=   1.5963    1:n_vdd!_x=   1.5971 
 +  1:n_net091=  10.1178m   1:n_vdd!_x=   1.5970    1:n_net076=   4.7486m
 +  1:n_xi120/=   1.5949    1:n_gnd!_x=   4.0426m   1:n_net076=   4.7615m
 +  1:n_xi120/=   1.5950    1:n_vdd!_x=   1.5971    1:n_net090=  11.1476m
 +  1:n_gnd!_x=   4.1855m   1:n_xi113/=   1.7968    1:n_net089=   1.7879 
 +  1:n_xi113/=   1.7968    1:n_net090=  11.3700m   1:n_vdd!_x=   1.7972 
 +  1:n_net089=   1.7879    1:n_vdd!_x=   1.7975    1:n_net088=   9.7396m
 +  1:n_xi113/=   1.7964    1:n_gnd!_x=   4.2248m   1:n_net088=   9.8408m
 +  1:n_xi113/=   1.7966    1:n_vdd!_x=   1.7971    1:n_net098=  11.4797m
 +  1:n_gnd!_x=   3.9110m   1:n_xi119/=   1.7919    1:n_net012=  11.9425m
 +  1:n_xi119/=   1.7926    1:n_net098=  11.7051m   1:n_vdd!_x=   1.7990 
 +  1:n_net012=  12.1660m   1:n_vdd!_x=   1.7999    1:n_net091=   9.6420m
 +  1:n_xi119/=   1.7917    1:n_gnd!_x=   4.0500m   1:n_net091=   9.7391m
 +  1:n_xi119/=   1.7919    1:n_vdd!_x=   1.7977    1:n_xi60/n= 220.6633m
 +  1:n_net023=   5.3612m   1:n_gnd!_x= 220.5197m   1:n_xi60/n= 220.6631m
 +  1:n_net016=   1.6714    1:n_net023=   5.4314m   1:n_vdd!_x=   1.5951 
 +  1:n_vdd!_x=   1.5951    1:n_xi60/n= 220.6656m   1:n_net016=   1.6714 
 +  1:n_net5_x=   1.5949    1:n_xi60/n= 220.6774m   1:n_gnd!_x= 220.7394m
 +  1:n_net5_x=   1.5949    1:n_xi60/n= 220.6995m   1:n_vdd!_x=   1.5951 
 +  1:n_xi64/n=   1.5954    1:n_net014=   9.7844m   1:n_gnd!_x= 185.5784m
 +  1:n_gnd!_x= 185.8643m   1:n_xi64/n=   1.5954    1:n_net022= 221.1107m
 +  1:n_net014=   9.8532m   1:n_vdd!_x=   1.5971    1:n_xi64/n=   1.5954 
 +  1:n_net022= 221.1252m   1:n_net020= 186.0918m   1:n_xi64/n=   1.5954 
 +  1:n_gnd!_x= 185.9356m   1:n_net020= 186.0925m   1:n_xi64/n=   1.5954 
 +  1:n_vdd!_x=   1.5971    1:n_xi79/n= 166.2498m   1:n_net064=   5.2492m
 +  1:n_gnd!_x= 166.0938m   1:n_gnd!_x= 166.0994m   1:n_xi79/n= 166.2496m
 +  1:n_net020=   1.5966    1:n_net064=   5.3204m   1:n_vdd!_x=   1.5971 
 +  1:n_xi79/n= 166.2520m   1:n_net020=   1.5966    1:n_net20_=   1.5970 
 +  1:n_xi79/n= 166.2708m   1:n_gnd!_x= 166.0959m   1:n_net20_=   1.5970 
 +  1:n_xi79/n= 166.3048m   1:n_vdd!_x=   1.5971    1:n_xi70/n= 166.1827m
 +  1:n_net010=   1.5958    1:n_gnd!_x= 166.1018m   1:n_xi70/n= 166.1833m
 +  1:n_net010= 221.1087m   1:n_net010=   1.5958    1:n_vdd!_x=   1.5971 
 +  1:n_xi70/n= 166.1840m   1:n_net010= 221.1087m   1:n_net020=   1.5969 
 +  1:n_xi70/n= 166.2039m   1:n_gnd!_x= 166.0997m   1:n_net020=   1.5969 
 +  1:n_xi70/n= 166.2379m   1:n_vdd!_x=   1.5971    1:n_xi71/n=   1.5953 
 +  1:n_net010=   9.9612m   1:n_gnd!_x= 164.3474m   1:n_gnd!_x= 164.3746m
 +  1:n_xi71/n=   1.5954    1:n_net020= 186.3543m   1:n_net010=  10.0298m
 +  1:n_vdd!_x=   1.5971    1:n_xi71/n=   1.5954    1:n_net020= 186.3732m
 +  1:n_net020= 164.4186m   1:n_xi71/n=   1.5953    1:n_gnd!_x= 164.3641m
 +  1:n_net020= 164.4195m   1:n_xi71/n=   1.5953    1:n_vdd!_x=   1.5971 
 +  1:n_xi78/n= 141.7399m   1:n_net018=   1.5958    1:n_gnd!_x= 141.6437m
 +  1:n_gnd!_x= 142.1331m   1:n_xi78/n= 141.7406m   1:n_net020= 164.4186m
 +  1:n_net018=   1.5958    1:n_vdd!_x=   1.5971    1:n_xi78/n= 141.7413m
 +  1:n_net020= 164.4186m   1:n_net17_=   1.5967    1:n_xi78/n= 141.7652m
 +  1:n_gnd!_x= 142.1591m   1:n_net17_=   1.5967    1:n_xi78/n= 141.8061m
 +  1:n_vdd!_x=   1.5971    1:n_xi77/n= 142.2148m   1:n_net018=   5.3014m
 +  1:n_gnd!_x= 142.0041m   1:n_xi77/n= 142.2145m   1:n_net019=   1.5969 
 +  1:n_net018=   5.3727m   1:n_vdd!_x=   1.5971    1:n_xi77/n= 142.2179m
 +  1:n_net019=   1.5969    1:n_net14_=   1.5969    1:n_xi77/n= 142.2400m
 +  1:n_gnd!_x= 142.0935m   1:n_net14_=   1.5969    1:n_xi77/n= 142.2808m
 +  1:n_vdd!_x=   1.5971    1:n_xi76/n= 142.3101m   1:n_net018=   5.3558m
 +  1:n_gnd!_x= 142.0997m   1:n_xi76/n= 142.3099m   1:n_net019=   1.5969 
 +  1:n_net018=   5.4270m   1:n_vdd!_x=   1.5971    1:n_xi76/n= 142.3133m
 +  1:n_net019=   1.5969    1:n_net11_=   1.5965    1:n_xi76/n= 142.3353m
 +  1:n_gnd!_x= 142.1219m   1:n_net11_=   1.5966    1:n_xi76/n= 142.3761m
 +  1:n_vdd!_x=   1.5971    1:n_xi80/n=   1.5933    1:n_net017=   4.5329m
 +  1:n_gnd!_x= 140.2971m   1:n_gnd!_x= 140.1136m   1:n_xi80/n=   1.5933 
 +  1:n_net019= 142.3361m   1:n_net017=   4.6033m   1:n_vdd!_x=   1.5951 
 +  1:n_vdd!_x=   1.5952    1:n_xi80/n=   1.5933    1:n_net019= 142.3621m
 +  1:n_cout_x= 140.1854m   1:n_xi80/n=   1.5932    1:n_gnd!_x= 140.1076m
 +  1:n_cout_x= 140.1868m   1:n_xi80/n=   1.5933    1:n_vdd!_x=   1.5952 
 +  1:n_xi65/n= 186.0048m   1:n_net022=  10.0012m   1:n_gnd!_x= 185.7599m
 +  1:n_xi65/n= 186.0045m   1:n_net014=   1.6714    1:n_net022=  10.0701m
 +  1:n_vdd!_x=   1.5971    1:n_xi65/n= 186.0091m   1:n_net014=   1.6714 
 +  1:n_net022=   1.5969    1:n_xi65/n= 186.0237m   1:n_gnd!_x= 185.8318m
 +  1:n_net022=   1.5969    1:n_xi65/n= 186.0530m   1:n_vdd!_x=   1.5971 
 +  1:n_xi61/n= 220.7435m   1:n_net015=   1.5960    1:n_gnd!_x= 220.6878m
 +  1:n_xi61/n= 220.7439m   1:n_net015= 220.9771m   1:n_net015=   1.5960 
 +  1:n_vdd!_x=   1.5951    1:n_xi61/n= 220.7444m   1:n_net015= 220.9771m
 +  1:n_net023=   1.5950    1:n_xi61/n= 220.7575m   1:n_gnd!_x= 220.8257m
 +  1:n_net023=   1.5950    1:n_xi61/n= 220.7795m   1:n_vdd!_x=   1.5951 
 +  1:n_xi66/n= 185.9018m   1:n_net013=   1.7880    1:n_gnd!_x= 185.8342m
 +  1:n_xi66/n= 185.9023m   1:n_net013= 221.0356m   1:n_net013=   1.7880 
 +  1:n_vdd!_x=   1.5971    1:n_xi66/n= 185.9028m   1:n_net013= 221.0356m
 +  1:n_net021=   1.5970    1:n_xi66/n= 185.9201m   1:n_gnd!_x= 185.8549m
 +  1:n_net021=   1.5970    1:n_xi66/n= 185.9494m   1:n_vdd!_x=   1.5971 
 +  1:n_xi62/n=   1.5934    1:n_net015=   5.3372m   1:n_gnd!_x= 220.8270m
 +  1:n_xi62/n=   1.5934    1:n_net015= 221.0501m   1:n_net015=   5.4072m
 +  1:n_vdd!_x=   1.5951    1:n_xi62/n=   1.5934    1:n_net015= 221.0644m
 +  1:n_net010= 220.9649m   1:n_xi62/n=   1.5934    1:n_gnd!_x= 220.8680m
 +  1:n_net010= 220.9653m   1:n_xi62/n=   1.5934    1:n_vdd!_x=   1.5951 
 +  1:n_xi67/n=   1.5954    1:n_net021=   9.7498m   1:n_gnd!_x= 185.8543m
 +  1:n_xi67/n=   1.5954    1:n_net016= 221.0396m   1:n_net021=   9.8186m
 +  1:n_vdd!_x=   1.5970    1:n_xi67/n=   1.5954    1:n_net016= 221.0541m
 +  1:n_net019= 185.9246m   1:n_xi67/n=   1.5954    1:n_gnd!_x= 185.8615m
 +  1:n_net019= 185.9253m   1:n_xi67/n=   1.5954    1:n_vdd!_x=   1.5971 
 +  1:n_xi63/n=   1.5934    1:n_net022=   5.3454m   1:n_gnd!_x= 220.8656m
 +  1:n_xi63/n=   1.5934    1:n_net022= 221.1015m   1:n_net022=   5.4154m
 +  1:n_vdd!_x=   1.5951    1:n_xi63/n=   1.5935    1:n_net022= 221.1158m
 +  1:n_net010= 220.9759m   1:n_xi63/n=   1.5934    1:n_gnd!_x= 220.8792m
 +  1:n_net010= 220.9763m   1:n_xi63/n=   1.5934    1:n_vdd!_x=   1.5951 
 +  1:n_xi72/n= 164.5279m   1:n_net020=   9.9099m   1:n_gnd!_x= 164.3686m
 +  1:n_xi72/n= 164.5277m   1:n_net022=   1.5967    1:n_net020=   9.9788m
 +  1:n_vdd!_x=   1.5971    1:n_xi72/n= 164.5302m   1:n_net022=   1.5967 
 +  1:n_net019=   1.5970    1:n_xi72/n= 164.5492m   1:n_gnd!_x= 164.3720m
 +  1:n_net019=   1.5970    1:n_xi72/n= 164.5837m   1:n_vdd!_x=   1.5971 
 +  1:n_xi68/n= 166.2549m   1:n_net094=   5.3332m   1:n_gnd!_x= 166.1002m
 +  1:n_xi68/n= 166.2547m   1:n_net023=   1.5946    1:n_net094=   5.4044m
 +  1:n_vdd!_x=   1.5971    1:n_xi68/n= 166.2571m   1:n_net023=   1.5946 
 +  1:n_net021=   1.5969    1:n_xi68/n= 166.2759m   1:n_gnd!_x= 166.0988m
 +  1:n_net021=   1.5969    1:n_xi68/n= 166.3099m   1:n_vdd!_x=   1.5971 
 +  1:n_xi73/n= 164.5358m   1:n_net010=   9.9172m   1:n_gnd!_x= 164.3763m
 +  1:n_xi73/n= 164.5356m   1:n_net021=   1.5969    1:n_net010=   9.9862m
 +  1:n_vdd!_x=   1.5971    1:n_xi73/n= 164.5381m   1:n_net021=   1.5969 
 +  1:n_net019=   1.5970    1:n_xi73/n= 164.5571m   1:n_gnd!_x= 164.3742m
 +  1:n_net019=   1.5970    1:n_xi73/n= 164.5916m   1:n_vdd!_x=   1.5971 
 +  1:n_xi69/n= 166.1821m   1:n_net011=   1.5958    1:n_gnd!_x= 166.1012m
 +  1:n_xi69/n= 166.1827m   1:n_net010= 221.0964m   1:n_net011=   1.5958 
 +  1:n_vdd!_x=   1.5971    1:n_xi69/n= 166.1834m   1:n_net010= 221.0964m
 +  1:n_net020=   1.5969    1:n_xi69/n= 166.2033m   1:n_gnd!_x= 166.0995m
 +  1:n_net020=   1.5969    1:n_xi69/n= 166.2373m   1:n_vdd!_x=   1.5971 
 +  1:n_xi75/n=   1.5952    1:n_net076=   5.2212m   1:n_gnd!_x= 142.1211m
 +  1:n_xi75/n=   1.5952    1:n_net019= 164.5399m   1:n_net076=   5.2922m
 +  1:n_vdd!_x=   1.5970    1:n_xi75/n=   1.5952    1:n_net019= 164.5622m
 +  1:n_net019= 142.2406m   1:n_xi75/n=   1.5952    1:n_gnd!_x= 142.1300m
 +  1:n_net019= 142.2420m   1:n_xi75/n=   1.5952    1:n_vdd!_x=   1.5971 
 +  1:n_xi74/n=   1.5953    1:n_net097=   9.6945m   1:n_gnd!_x= 164.3748m
 +  1:n_xi74/n=   1.5953    1:n_net019= 186.0219m   1:n_net097=   9.7633m
 +  1:n_vdd!_x=   1.5970    1:n_xi74/n=   1.5954    1:n_net019= 186.0408m
 +  1:n_net019= 164.4580m   1:n_xi74/n=   1.5953    1:n_gnd!_x= 164.3752m
 +  1:n_net019= 164.4589m   1:n_xi74/n=   1.5953    1:n_vdd!_x=   1.5971 
 +  1:n_xi5/ne=   1.6702    1:n_net013=   9.2985m   1:n_xi5/ne=   1.6702 
 +  1:n_xi5/ne=   1.6702    1:n_net013=   9.2985m   1:n_xi4/ne=   1.6808 
 +  1:n_net011=   1.7708    1:n_xi4/ne=   1.6808    1:n_xi4/ne=   1.6808 
 +  1:n_net011=   1.7708    1:n_xi3/ne= 224.3038m   1:n_net012= 226.2515m
 +  1:n_xi3/ne= 224.3040m   1:n_xi3/ne= 224.3051m   1:n_net012= 226.2522m
 +  1:n_xi2/ne= 221.8795m   1:n_net012=   1.7609    1:n_xi2/ne= 221.8797m
 +  1:n_xi2/ne= 221.8806m   1:n_net012=   1.7610    1:n_xi1/ne=   1.6768 
 +  1:n_net014=   1.7747    1:n_xi1/ne=   1.6768    1:n_xi1/ne=   1.6768 
 +  1:n_net014=   1.7747    1:n_xi0/ne= 221.8965m   1:n_net013=   1.7616 
 +  1:n_xi0/ne= 221.8966m   1:n_xi0/ne= 221.8976m   1:n_net013=   1.7616 
 +  1:n_xi7/ne=   1.6738    1:n_net25_=   1.7715    1:n_xi7/ne=   1.6738 
 +  1:n_xi7/ne=   1.6738    1:n_net25_=   1.7715    1:n_xi6/ne= 223.2190m
 +  1:n_net015= 224.2412m   1:n_xi6/ne= 223.2192m   1:n_xi6/ne= 223.2203m
 +  1:n_net015= 224.2419m   1:n_xi121/=   1.7898    1:n_xi121/=   1.7898 
 +  1:n_xi121/=   1.7898    1:n_xi121/=   1.7903    1:n_xi121/=   1.7904 
 +  1:n_xi121/=   1.7901    1:n_xi121/=   1.7900    1:n_xi121/=   1.7903 
 +  1:n_xi121/=   1.7901    1:n_xi122/=   1.5959    1:n_xi122/=   1.5959 
 +  1:n_xi122/=   1.5959    1:n_xi122/=   1.5960    1:n_xi122/=   1.5960 
 +  1:n_xi122/=   1.5960    1:n_xi122/=   1.5960    1:n_xi122/=   1.5960 
 +  1:n_xi122/=   1.5960    1:n_xi115/=   1.6694    1:n_xi115/=   1.6694 
 +  1:n_xi115/=   1.6693    1:n_xi115/=   1.6695    1:n_xi115/=   1.6695 
 +  1:n_xi115/=   1.6694    1:n_xi115/=   1.6694    1:n_xi115/=   1.6695 
 +  1:n_xi115/=   1.6694    1:n_xi109/=   1.6669    1:n_xi109/=   1.6669 
 +  1:n_xi109/=   1.6669    1:n_xi109/=   1.6670    1:n_xi109/=   1.6671 
 +  1:n_xi109/=   1.6670    1:n_xi109/=   1.6669    1:n_xi109/=   1.6670 
 +  1:n_xi109/=   1.6670    1:n_xi103/= 222.3243m   1:n_xi103/= 222.3232m
 +  1:n_xi103/= 222.3232m   1:n_xi103/= 222.3197m   1:n_xi103/= 222.3255m
 +  1:n_xi103/= 222.3082m   1:n_xi103/= 222.3013m   1:n_xi103/= 222.3188m
 +  1:n_xi103/= 222.3108m   1:n_xi97/n=   1.6717    1:n_xi97/n=   1.6717 
 +  1:n_xi97/n=   1.6717    1:n_xi97/n=   1.6717    1:n_xi97/n=   1.6717 
 +  1:n_xi97/n=   1.6717    1:n_xi97/n=   1.6717    1:n_xi97/n=   1.6717 
 +  1:n_xi97/n=   1.6717    1:n_xi91/n=   1.6669    1:n_xi91/n=   1.6669 
 +  1:n_xi91/n=   1.6669    1:n_xi91/n=   1.6670    1:n_xi91/n=   1.6670 
 +  1:n_xi91/n=   1.6670    1:n_xi91/n=   1.6669    1:n_xi91/n=   1.6670 
 +  1:n_xi91/n=   1.6670    1:n_xi87/n=   1.6716    1:n_xi87/n=   1.6716 
 +  1:n_xi87/n=   1.6716    1:n_xi87/n=   1.6717    1:n_xi87/n=   1.6717 
 +  1:n_xi87/n=   1.6717    1:n_xi87/n=   1.6717    1:n_xi87/n=   1.6717 
 +  1:n_xi87/n=   1.6717    1:n_xi83/n=   1.6669    1:n_xi83/n=   1.6669 
 +  1:n_xi83/n=   1.6669    1:n_xi83/n=   1.6670    1:n_xi83/n=   1.6670 
 +  1:n_xi83/n=   1.6670    1:n_xi83/n=   1.6669    1:n_xi83/n=   1.6670 
 +  1:n_xi83/n=   1.6670    1:n_xi81/n= 222.3237m   1:n_xi81/n= 222.3226m
 +  1:n_xi81/n= 222.3226m   1:n_xi81/n= 222.3191m   1:n_xi81/n= 222.3248m
 +  1:n_xi81/n= 222.3076m   1:n_xi81/n= 222.3006m   1:n_xi81/n= 222.3181m
 +  1:n_xi81/n= 222.3102m   1:n_xi98/n=   1.7901    1:n_xi98/n=   1.7901 
 +  1:n_xi98/n=   1.7901    1:n_xi98/n=   1.7903    1:n_xi98/n=   1.7903 
 +  1:n_xi98/n=   1.7902    1:n_xi98/n=   1.7902    1:n_xi98/n=   1.7903 
 +  1:n_xi98/n=   1.7902    1:n_xi104/=   1.7948    1:n_xi104/=   1.7948 
 +  1:n_xi104/=   1.7948    1:n_xi104/=   1.7950    1:n_xi104/=   1.7950 
 +  1:n_xi104/=   1.7950    1:n_xi104/=   1.7950    1:n_xi104/=   1.7950 
 +  1:n_xi104/=   1.7950    1:n_xi104/=   1.7950    1:n_xi82/n=   1.5992 
 +  1:n_xi82/n=   1.5992    1:n_xi82/n=   1.5992    1:n_xi82/n=   1.5993 
 +  1:n_xi82/n=   1.5993    1:n_xi82/n=   1.5993    1:n_xi82/n=   1.5993 
 +  1:n_xi82/n=   1.5993    1:n_xi82/n=   1.5993    1:n_xi84/n=  11.9095m
 +  1:n_xi84/n=  11.9064m   1:n_xi84/n=  11.9065m   1:n_xi84/n=  11.9534m
 +  1:n_xi84/n=  11.9856m   1:n_xi84/n=  11.8894m   1:n_xi84/n=  11.8487m
 +  1:n_xi84/n=  11.9482m   1:n_xi84/n=  11.9039m   1:n_xi100/=   1.7942 
 +  1:n_xi100/=   1.7942    1:n_xi100/=   1.7942    1:n_xi100/=   1.7944 
 +  1:n_xi100/=   1.7944    1:n_xi100/=   1.7944    1:n_xi100/=   1.7944 
 +  1:n_xi100/=   1.7944    1:n_xi100/=   1.7944    1:n_xi100/=   1.7944 
 +  1:n_xi106/=   1.7889    1:n_xi106/=   1.7889    1:n_xi106/=   1.7889 
 +  1:n_xi106/=   1.7893    1:n_xi106/=   1.7894    1:n_xi106/=   1.7891 
 +  1:n_xi106/=   1.7890    1:n_xi106/=   1.7893    1:n_xi106/=   1.7890 
 +  1:n_xi106/=   1.7892    1:n_xi90/n=   6.1601m   1:n_xi90/n=   6.1570m
 +  1:n_xi90/n=   6.1570m   1:n_xi90/n=   6.1186m   1:n_xi90/n=   6.1256m
 +  1:n_xi90/n=   6.1046m   1:n_xi90/n=   6.0970m   1:n_xi90/n=   6.1174m
 +  1:n_xi90/n=   6.0953m   1:n_xi90/n=   6.1078m   1:n_xi94/n=   6.1529m
 +  1:n_xi94/n=   6.1497m   1:n_xi94/n=   6.1497m   1:n_xi94/n=   6.1113m
 +  1:n_xi94/n=   6.1183m   1:n_xi94/n=   6.0973m   1:n_xi94/n=   6.0897m
 +  1:n_xi94/n=   6.1101m   1:n_xi94/n=   6.0880m   1:n_xi94/n=   6.1005m
 +  1:n_xi112/=   1.7889    1:n_xi112/=   1.7889    1:n_xi112/=   1.7888 
 +  1:n_xi112/=   1.7893    1:n_xi112/=   1.7894    1:n_xi112/=   1.7891 
 +  1:n_xi112/=   1.7890    1:n_xi112/=   1.7893    1:n_xi112/=   1.7890 
 +  1:n_xi112/=   1.7891    1:n_xi118/=   1.7829    1:n_xi118/=   1.7829 
 +  1:n_xi118/=   1.7829    1:n_xi118/=   1.7833    1:n_xi118/=   1.7833 
 +  1:n_xi118/=   1.7831    1:n_xi118/=   1.7830    1:n_xi118/=   1.7833 
 +  1:n_xi118/=   1.7830    1:n_xi118/=   1.7831    1:n_xi95/n=   1.5949 
 +  1:n_xi95/n=   1.5949    1:n_xi95/n=   1.5949    1:n_xi95/n=   1.5950 
 +  1:n_xi95/n=   1.5950    1:n_xi95/n=   1.5950    1:n_xi95/n=   1.5949 
 +  1:n_xi95/n=   1.5950    1:n_xi95/n=   1.5950    1:n_xi96/n=   1.5959 
 +  1:n_xi96/n=   1.5959    1:n_xi96/n=   1.5959    1:n_xi96/n=   1.5960 
 +  1:n_xi96/n=   1.5960    1:n_xi96/n=   1.5960    1:n_xi96/n=   1.5960 
 +  1:n_xi96/n=   1.5960    1:n_xi96/n=   1.5960    1:n_xi88/n=   1.5952 
 +  1:n_xi88/n=   1.5952    1:n_xi88/n=   1.5952    1:n_xi88/n=   1.5953 
 +  1:n_xi88/n=   1.5953    1:n_xi88/n=   1.5953    1:n_xi88/n=   1.5953 
 +  1:n_xi88/n=   1.5953    1:n_xi88/n=   1.5953    1:n_xi92/n=   1.5951 
 +  1:n_xi92/n=   1.5951    1:n_xi92/n=   1.5951    1:n_xi92/n=   1.5952 
 +  1:n_xi92/n=   1.5952    1:n_xi92/n=   1.5952    1:n_xi92/n=   1.5952 
 +  1:n_xi92/n=   1.5952    1:n_xi92/n=   1.5952    1:n_xi110/=  14.4202m
 +  1:n_xi110/=  14.4090m   1:n_xi110/=  14.4091m   1:n_xi110/=  14.3238m
 +  1:n_xi110/=  14.3639m   1:n_xi110/=  14.2442m   1:n_xi110/=  14.1974m
 +  1:n_xi110/=  14.3173m   1:n_xi110/=  14.1916m   1:n_xi110/=  14.2623m
 +  1:n_xi116/=   1.7888    1:n_xi116/=   1.7888    1:n_xi116/=   1.7888 
 +  1:n_xi116/=   1.7892    1:n_xi116/=   1.7893    1:n_xi116/=   1.7891 
 +  1:n_xi116/=   1.7889    1:n_xi116/=   1.7892    1:n_xi116/=   1.7889 
 +  1:n_xi116/=   1.7891    1:n_xi85/n=   1.5932    1:n_xi85/n=   1.5932 
 +  1:n_xi85/n=   1.5932    1:n_xi85/n=   1.5933    1:n_xi85/n=   1.5933 
 +  1:n_xi85/n=   1.5933    1:n_xi85/n=   1.5932    1:n_xi85/n=   1.5933 
 +  1:n_xi85/n=   1.5933    1:n_xi89/n=  14.4605m   1:n_xi89/n=  14.4575m
 +  1:n_xi89/n=  14.4575m   1:n_xi89/n=  14.5422m   1:n_xi89/n=  14.5856m
 +  1:n_xi89/n=  14.4561m   1:n_xi89/n=  14.4008m   1:n_xi89/n=  14.5352m
 +  1:n_xi89/n=  14.4757m   1:n_xi99/n=  15.5862m   1:n_xi99/n=  15.5750m
 +  1:n_xi99/n=  15.5751m   1:n_xi99/n=  15.5085m   1:n_net091=  10.5437m
 +  1:n_xi99/n=  15.5538m   1:n_xi99/n=  15.4186m   1:n_xi99/n=  15.3649m
 +  1:n_xi99/n=  15.5012m   1:n_xi99/n=  15.3592m   1:n_xi99/n=  15.4390m
 +  1:n_xi105/=   1.7941    1:n_xi105/=   1.7941    1:n_xi105/=   1.7941 
 +  1:n_gnd!_x=   2.9730m   1:n_xi105/=   1.7943    1:n_xi105/=   1.7943 
 +  1:n_xi105/=   1.7942    1:n_xi105/=   1.7942    1:n_xi105/=   1.7943 
 +  1:n_xi105/=   1.7942    1:n_xi105/=   1.7942    1:n_xi93/n=  14.6186m
 +  1:n_xi93/n=  14.6156m   1:n_gnd!_x=   4.2374m   1:n_xi93/n=  14.6157m
 +  1:n_xi93/n=  14.7029m   1:n_xi93/n=  14.7470m   1:n_xi93/n=  14.6153m
 +  1:n_xi93/n=  14.5590m   1:n_xi93/n=  14.6957m   1:n_xi93/n=  14.6352m
 +  1:n_xi86/n=   1.5959    1:n_xi86/n=   1.5959    1:n_xi121/=   1.7898 
 +  1:n_xi86/n=   1.5959    1:n_xi86/n=   1.5960    1:n_xi86/n=   1.5960 
 +  1:n_xi86/n=   1.5960    1:n_xi86/n=   1.5960    1:n_xi86/n=   1.5960 
 +  1:n_xi86/n=   1.5960    1:n_xi86/n=   1.5960    1:n_xi111/=   1.7886 
 +  1:n_net079=   6.6236m   1:n_xi111/=   1.7886    1:n_xi111/=   1.7886 
 +  1:n_xi111/=   1.7889    1:n_xi111/=   1.7890    1:n_xi111/=   1.7888 
 +  1:n_xi111/=   1.7888    1:n_xi111/=   1.7889    1:n_xi111/=   1.7889 
 +  1:n_xi117/=   1.7960    1:n_xi121/=   1.7906    1:n_xi117/=   1.7960 
 +  1:n_xi117/=   1.7960    1:n_xi117/=   1.7962    1:n_xi117/=   1.7962 
 +  1:n_xi117/=   1.7962    1:n_xi117/=   1.7962    1:n_xi117/=   1.7962 
 +  1:n_xi117/=   1.7962    1:n_xi102/=  11.8114m   1:n_net091=  10.7690m
 +  1:n_xi102/=  11.8083m   1:n_xi102/=  11.8084m   1:n_xi102/=  11.8540m
 +  1:n_xi102/=  11.8858m   1:n_xi102/=  11.7908m   1:n_xi102/=  11.7506m
 +  1:n_xi102/=  11.8488m   1:n_xi102/=  11.8051m   1:n_xi108/=   1.5950 
 +  1:n_vdd!_x=   1.7978    1:n_xi108/=   1.5950    1:n_xi108/=   1.5950 
 +  1:n_xi108/=   1.5951    1:n_xi108/=   1.5951    1:n_xi108/=   1.5951 
 +  1:n_xi108/=   1.5951    1:n_xi108/=   1.5951    1:n_xi108/=   1.5951 
 +  1:n_xi101/=  21.1222m   1:n_vdd!_x=   1.7967    1:n_xi101/=  21.1114m
 +  1:n_xi101/=  21.1115m   1:n_xi101/=  21.1315m   1:n_xi101/=  21.2009m
 +  1:n_xi101/=  20.9939m   1:n_xi101/=  20.9085m   1:n_xi101/=  21.1203m
 +  1:n_xi101/=  20.9030m   1:n_xi101/=  21.0252m   1:n_net079=   6.8514m
 +  1:n_xi107/=   1.7962    1:n_xi107/=   1.7962    1:n_xi107/=   1.7962 
 +  1:n_xi107/=   1.7963    1:n_xi107/=   1.7963    1:n_xi107/=   1.7963 
 +  1:n_xi107/=   1.7963    1:n_xi107/=   1.7963    1:n_xi107/=   1.7963 
 +  1:n_vdd!_x=   1.7974    1:n_xi114/=   1.5950    1:n_xi114/=   1.5950 
 +  1:n_xi114/=   1.5950    1:n_xi114/=   1.5951    1:n_xi114/=   1.5951 
 +  1:n_xi114/=   1.5951    1:n_xi114/=   1.5950    1:n_xi114/=   1.5951 
 +  1:n_xi114/=   1.5951    1:n_net061=   8.6904m   1:n_xi120/=   1.5950 
 +  1:n_xi120/=   1.5950    1:n_xi120/=   1.5950    1:n_xi120/=   1.5951 
 +  1:n_xi120/=   1.5951    1:n_xi120/=   1.5951    1:n_xi120/=   1.5950 
 +  1:n_xi120/=   1.5951    1:n_xi120/=   1.5951    1:n_xi121/=   1.7896 
 +  1:n_xi113/=   1.7966    1:n_xi113/=   1.7966    1:n_xi113/=   1.7966 
 +  1:n_xi113/=   1.7968    1:n_xi113/=   1.7968    1:n_xi113/=   1.7968 
 +  1:n_xi113/=   1.7968    1:n_xi113/=   1.7968    1:n_xi113/=   1.7968 
 +  1:n_gnd!_x=   3.4393m   1:n_xi119/=   1.7919    1:n_xi119/=   1.7919 
 +  1:n_xi119/=   1.7919    1:n_xi119/=   1.7923    1:n_xi119/=   1.7924 
 +  1:n_xi119/=   1.7921    1:n_xi119/=   1.7920    1:n_xi119/=   1.7923 
 +  1:n_xi119/=   1.7922    1:n_net061=   8.7866m   1:n_xi5/ne=   1.6702 
 +  1:n_xi5/ne=   1.6702    1:n_xi4/ne=   1.6808    1:n_xi4/ne=   1.6808 
 +  1:n_xi4/ne=   1.6808    1:n_xi4/ne=   1.6808    1:n_xi3/ne= 224.3038m
 +  1:n_xi3/ne= 224.3038m   1:n_xi121/=   1.7898    1:n_xi3/ne= 224.3040m
 +  1:n_xi3/ne= 224.3038m   1:n_xi2/ne= 221.8795m   1:n_xi2/ne= 221.8795m
 +  1:n_xi2/ne= 221.8796m   1:n_xi2/ne= 221.8795m   1:n_xi1/ne=   1.6768 
 +  1:n_xi1/ne=   1.6768    1:n_vdd!_x=   1.7969    1:n_xi1/ne=   1.6768 
 +  1:n_xi1/ne=   1.6768    1:n_xi0/ne= 221.8965m   1:n_xi0/ne= 221.8965m
 +  1:n_xi0/ne= 221.8966m   1:n_xi0/ne= 221.8965m   1:n_xi7/ne=   1.6738 
 +  1:n_xi7/ne=   1.6738    1:n_cin_xi= 282.4506u   1:n_xi7/ne=   1.6738 
 +  1:n_xi7/ne=   1.6738    1:n_xi6/ne= 223.2190m   1:n_xi6/ne= 223.2190m
 +  1:n_xi6/ne= 223.2191m   1:n_xi6/ne= 223.2190m   1:n_xi13/n=  55.7860m
 +  1:n_xi13/n=  55.7860m   1:n_gnd!_x=   3.1587m   1:n_xi13/n=  55.7861m
 +  1:n_xi13/n=  55.7860m   1:n_xi9/ne= 105.7683m   1:n_xi9/ne= 105.7683m
 +  1:n_xi9/ne= 105.7685m   1:n_xi9/ne= 105.7683m   1:n_xi12/n=  63.2610m
 +  1:n_xi12/n=  63.2610m   1:n_xi122/=   1.5960    1:n_xi12/n=  63.2612m
 +  1:n_xi12/n=  63.2610m   1:n_xi16/n= 103.7385m   1:n_xi16/n= 103.7385m
 +  1:n_xi16/n= 103.7387m   1:n_xi16/n= 103.7385m   1:n_xi11/n=  58.3004m
 +  1:n_xi11/n=  58.3004m   1:n_net061=   8.9262m   1:n_xi11/n=  58.3004m
 +  1:n_xi15/n= 104.1864m   1:n_xi15/n= 104.1864m   1:n_xi15/n= 104.1866m
 +  1:n_xi15/n= 104.1864m   1:n_xi10/n=  63.2093m   1:n_xi10/n=  63.2095m
 +  1:n_xi122/=   1.5961    1:n_xi14/n=   1.5930    1:n_xi14/n=   1.5930 
 +  1:n_xi60/n= 220.6776m   1:n_xi60/n= 220.6770m   1:n_xi60/n= 220.6770m
 +  1:n_xi60/n= 220.6633m   1:n_xi60/n= 220.6641m   1:n_xi60/n= 220.6646m
 +  1:n_xi60/n= 220.6645m   1:n_cin_xi= 346.4904u   1:n_xi60/n= 220.6633m
 +  1:n_xi60/n= 220.6634m   1:n_xi60/n= 220.6648m   1:n_xi64/n=   1.5954 
 +  1:n_xi64/n=   1.5954    1:n_xi64/n=   1.5954    1:n_xi64/n=   1.5954 
 +  1:n_xi64/n=   1.5954    1:n_xi64/n=   1.5954    1:n_vdd!_x=   1.5970 
 +  1:n_xi64/n=   1.5954    1:n_xi64/n=   1.5954    1:n_xi64/n=   1.5954 
 +  1:n_xi64/n=   1.5954    1:n_xi79/n= 166.2713m   1:n_xi79/n= 166.2703m
 +  1:n_xi79/n= 166.2703m   1:n_xi79/n= 166.2498m   1:n_xi79/n= 166.2507m
 +  1:n_vdd!_x=   1.5971    1:n_xi79/n= 166.2511m   1:n_xi79/n= 166.2512m
 +  1:n_xi79/n= 166.2498m   1:n_xi79/n= 166.2500m   1:n_xi79/n= 166.2513m
 +  1:n_xi79/n= 166.2508m   1:n_xi70/n= 166.2043m   1:n_xi70/n= 166.2033m
 +  1:n_xi70/n= 166.2034m   1:n_net061=   8.9853m   1:n_xi70/n= 166.1833m
 +  1:n_xi70/n= 166.1838m   1:n_xi70/n= 166.1839m   1:n_xi70/n= 166.1842m
 +  1:n_xi70/n= 166.1829m   1:n_xi70/n= 166.1834m   1:n_xi70/n= 166.1839m
 +  1:n_xi70/n= 166.1838m   1:n_xi71/n=   1.5953    1:n_vdd!_x=   1.5970 
 +  1:n_xi71/n=   1.5953    1:n_xi71/n=   1.5953    1:n_xi71/n=   1.5954 
 +  1:n_xi71/n=   1.5954    1:n_xi71/n=   1.5954    1:n_xi71/n=   1.5954 
 +  1:n_xi71/n=   1.5953    1:n_xi71/n=   1.5954    1:n_xi71/n=   1.5954 
 +  1:n_xi71/n=   1.5954    1:n_net017=   4.2564m   1:n_xi78/n= 141.7658m
 +  1:n_xi78/n= 141.7646m   1:n_xi78/n= 141.7646m   1:n_xi78/n= 141.7405m
 +  1:n_xi78/n= 141.7412m   1:n_xi78/n= 141.7412m   1:n_xi78/n= 141.7417m
 +  1:n_xi78/n= 141.7400m   1:n_xi78/n= 141.7407m   1:n_xi122/=   1.5959 
 +  1:n_xi78/n= 141.7413m   1:n_xi77/n= 142.2406m   1:n_xi77/n= 142.2394m
 +  1:n_xi77/n= 142.2394m   1:n_xi77/n= 142.2148m   1:n_xi77/n= 142.2160m
 +  1:n_xi77/n= 142.2166m   1:n_xi77/n= 142.2166m   1:n_xi77/n= 142.2148m
 +  1:n_gnd!_x=   3.5401m   1:n_xi77/n= 142.2150m   1:n_xi77/n= 142.2169m
 +  1:n_xi76/n= 142.3359m   1:n_xi76/n= 142.3347m   1:n_xi76/n= 142.3347m
 +  1:n_xi76/n= 142.3101m   1:n_xi76/n= 142.3114m   1:n_xi76/n= 142.3120m
 +  1:n_xi76/n= 142.3119m   1:n_net017=   4.2696m   1:n_xi76/n= 142.3101m
 +  1:n_xi76/n= 142.3103m   1:n_xi76/n= 142.3122m   1:n_xi80/n=   1.5933 
 +  1:n_xi80/n=   1.5933    1:n_xi80/n=   1.5933    1:n_xi80/n=   1.5933 
 +  1:n_xi80/n=   1.5933    1:n_xi80/n=   1.5933    1:n_xi122/=   1.5959 
 +  1:n_xi80/n=   1.5933    1:n_xi80/n=   1.5933    1:n_xi80/n=   1.5933 
 +  1:n_xi80/n=   1.5933    1:n_xi80/n=   1.5933    1:n_xi65/n= 186.0240m
 +  1:n_xi65/n= 186.0232m   1:n_xi65/n= 186.0232m   1:n_xi65/n= 186.0048m
 +  1:n_vdd!_x=   1.5971    1:n_xi65/n= 186.0063m   1:n_xi65/n= 186.0071m
 +  1:n_xi65/n= 186.0067m   1:n_xi65/n= 186.0048m   1:n_xi65/n= 186.0051m
 +  1:n_xi65/n= 186.0075m   1:n_xi61/n= 220.7576m   1:n_xi61/n= 220.7570m
 +  1:n_xi61/n= 220.7570m   1:n_xi13/n=  55.7860m   1:n_xi61/n= 220.7439m
 +  1:n_xi61/n= 220.7442m   1:n_xi61/n= 220.7443m   1:n_xi61/n= 220.7445m
 +  1:n_xi61/n= 220.7436m   1:n_xi61/n= 220.7440m   1:n_xi61/n= 220.7443m
 +  1:n_xi66/n= 185.9204m   1:n_xi66/n= 185.9196m   1:n_net11_=   1.5957 
 +  1:n_xi66/n= 185.9196m   1:n_xi66/n= 185.9023m   1:n_xi66/n= 185.9027m
 +  1:n_xi66/n= 185.9028m   1:n_xi66/n= 185.9031m   1:n_xi66/n= 185.9019m
 +  1:n_xi66/n= 185.9024m   1:n_xi66/n= 185.9028m   1:n_xi62/n=   1.5934 
 +  1:n_gnd!_x=  55.5421m   1:n_xi62/n=   1.5934    1:n_xi62/n=   1.5934 
 +  1:n_xi62/n=   1.5934    1:n_xi62/n=   1.5934    1:n_xi62/n=   1.5934 
 +  1:n_xi62/n=   1.5934    1:n_xi62/n=   1.5934    1:n_xi62/n=   1.5934 
 +  1:n_xi62/n=   1.5934    1:n_gnd!_x=  59.7785m   1:n_xi67/n=   1.5954 
 +  1:n_xi67/n=   1.5954    1:n_xi67/n=   1.5954    1:n_xi67/n=   1.5954 
 +  1:n_xi67/n=   1.5954    1:n_xi67/n=   1.5954    1:n_xi67/n=   1.5954 
 +  1:n_xi67/n=   1.5954    1:n_xi67/n=   1.5954    1:n_xi67/n=   1.5954 
 +  1:n_net013=  10.9026m   1:n_xi67/n=   1.5954    1:n_xi63/n=   1.5934 
 +  1:n_xi63/n=   1.5934    1:n_xi63/n=   1.5934    1:n_xi63/n=   1.5934 
 +  1:n_xi63/n=   1.5934    1:n_xi63/n=   1.5934    1:n_xi63/n=   1.5934 
 +  1:n_xi63/n=   1.5934    1:n_xi13/n=  55.7862m   1:n_xi63/n=   1.5934 
 +  1:n_xi63/n=   1.5934    1:n_xi72/n= 164.5497m   1:n_xi72/n= 164.5487m
 +  1:n_xi72/n= 164.5487m   1:n_xi72/n= 164.5279m   1:n_xi72/n= 164.5288m
 +  1:n_xi72/n= 164.5293m   1:n_xi72/n= 164.5293m   1:n_net013=  10.9408m
 +  1:n_xi72/n= 164.5279m   1:n_xi72/n= 164.5281m   1:n_xi72/n= 164.5295m
 +  1:n_xi72/n= 164.5289m   1:n_xi68/n= 166.2763m   1:n_xi68/n= 166.2753m
 +  1:n_xi68/n= 166.2754m   1:n_xi68/n= 166.2549m   1:n_xi68/n= 166.2558m
 +  1:n_xi13/n=  55.7868m   1:n_xi68/n= 166.2562m   1:n_xi68/n= 166.2563m
 +  1:n_xi68/n= 166.2549m   1:n_xi68/n= 166.2550m   1:n_xi68/n= 166.2564m
 +  1:n_xi68/n= 166.2559m   1:n_xi73/n= 164.5576m   1:n_xi73/n= 164.5566m
 +  1:n_xi73/n= 164.5566m   1:n_net11_=   1.5957    1:n_xi73/n= 164.5358m
 +  1:n_xi73/n= 164.5368m   1:n_xi73/n= 164.5372m   1:n_xi73/n= 164.5372m
 +  1:n_xi73/n= 164.5358m   1:n_xi73/n= 164.5360m   1:n_xi73/n= 164.5374m
 +  1:n_xi73/n= 164.5368m   1:n_xi69/n= 166.2037m   1:n_vdd!_x=   1.5953 
 +  1:n_xi69/n= 166.2027m   1:n_xi69/n= 166.2027m   1:n_xi69/n= 166.1827m
 +  1:n_xi69/n= 166.1832m   1:n_xi69/n= 166.1833m   1:n_xi69/n= 166.1836m
 +  1:n_xi69/n= 166.1822m   1:n_xi69/n= 166.1828m   1:n_xi69/n= 166.1833m
 +  1:n_xi69/n= 166.1832m   1:n_vdd!_x=   1.5940    1:n_xi75/n=   1.5952 
 +  1:n_xi75/n=   1.5952    1:n_xi75/n=   1.5952    1:n_xi75/n=   1.5952 
 +  1:n_xi75/n=   1.5952    1:n_xi75/n=   1.5952    1:n_xi75/n=   1.5952 
 +  1:n_xi75/n=   1.5952    1:n_xi75/n=   1.5952    1:n_net013=  10.9025m
 +  1:n_xi75/n=   1.5952    1:n_xi75/n=   1.5952    1:n_xi74/n=   1.5953 
 +  1:n_xi74/n=   1.5953    1:n_xi74/n=   1.5953    1:n_xi74/n=   1.5953 
 +  1:n_xi74/n=   1.5954    1:n_xi74/n=   1.5954    1:n_xi74/n=   1.5954 
 +  1:n_net11_=   1.5957    1:n_xi74/n=   1.5953    1:n_xi74/n=   1.5953 
 +  1:n_xi74/n=   1.5954    1:n_xi74/n=   1.5954    1:n_net022= 221.0493m
 +  1:n_net022= 221.0467m   1:n_net11_=   1.5957    1:n_net022= 221.0467m
 +  1:n_net022= 221.0493m   1:n_net022= 221.0467m   1:n_net022= 221.0467m
 +  1:n_net022= 221.0493m   1:n_net022= 221.0493m   1:n_net022= 221.0494m
 +  1:n_net022= 221.0493m   1:n_net022= 221.0494m   1:n_net022= 221.0493m
 +  1:n_net013=  10.9416m   1:n_net022= 221.3338m   1:n_net022= 221.1014m
 +  1:n_net022= 221.1019m   1:n_net022= 221.0492m   1:n_net022= 221.0493m
 +  1:n_net022= 221.0467m   1:n_net022= 221.0467m   1:n_net022= 221.0469m
 +  1:n_net022= 221.0489m   1:n_net022= 221.0491m   1:n_xi9/ne= 105.7683m
 +  1:n_net022= 221.0493m   1:n_net022= 221.0493m   1:n_net022= 221.0469m
 +  1:n_net022= 221.0493m   1:n_net022= 221.0705m   1:n_net022= 221.1310m
 +  1:n_net022= 221.2144m   1:n_net022= 221.2521m   1:n_net022= 221.0581m
 +  1:n_net022= 221.0705m   1:n_net020=   1.5966    1:n_net022= 221.0916m
 +  1:n_net022= 221.0805m   1:n_net022= 221.0497m   1:n_net022= 221.0933m
 +  1:n_net022= 221.2957m   1:n_net022= 221.1718m   1:n_net015= 220.9976m
 +  1:n_net015= 220.9959m   1:n_net015= 220.9959m   1:n_net014=   1.7663 
 +  1:n_net015= 220.9976m   1:n_net015= 220.9959m   1:n_net015= 220.9959m
 +  1:n_net015= 220.9960m   1:n_net015= 220.9960m   1:n_net015= 221.0663m
 +  1:n_net015= 221.0500m   1:n_net015= 221.0505m   1:n_net015= 220.9976m
 +  1:n_net015= 220.9959m   1:n_xi9/ne= 105.7685m   1:n_net015= 220.9959m
 +  1:n_net015= 220.9975m   1:n_net015= 220.9976m   1:n_net015= 220.9976m
 +  1:n_net015= 220.9976m   1:n_net015= 220.9976m   1:n_net015= 220.9976m
 +  1:n_net015= 220.9976m   1:n_net015= 220.9976m   1:n_net015= 220.9974m
 +  1:n_net014=   1.7656    1:n_net015= 220.9976m   1:n_net015= 220.9976m
 +  1:n_net015= 220.9976m   1:n_net015= 220.9976m   1:n_net015= 221.0192m
 +  1:n_net015= 221.0174m   1:n_net015= 221.0374m   1:n_net015= 221.0467m
 +  1:n_net015= 221.0172m   1:n_net015= 221.0076m   1:n_xi9/ne= 105.7686m
 +  1:n_net015= 221.0192m   1:n_net015= 221.0171m   1:n_net015= 221.0402m
 +  1:n_net015= 221.0291m   1:n_net015= 221.0081m   1:n_net015= 221.0572m
 +  1:n_net015= 221.0284m   1:n_net015= 220.9776m   1:n_net015= 220.9761m
 +  1:n_net020=   1.5966    1:n_net015= 220.9761m   1:n_net015= 220.9776m
 +  1:n_net015= 220.9761m   1:n_net015= 220.9761m   1:n_net015= 220.9776m
 +  1:n_net015= 220.9776m   1:n_net015= 220.9776m   1:n_net015= 220.9776m
 +  1:n_net015= 220.9776m   1:n_net015= 220.9776m   1:n_net014=   1.7663 
 +  1:n_net015= 221.0459m   1:n_net015= 220.9771m   1:n_net015= 220.9771m
 +  1:n_net015= 220.9776m   1:n_net015= 220.9776m   1:n_net015= 220.9761m
 +  1:n_net015= 220.9761m   1:n_net015= 220.9762m   1:n_net015= 220.9762m
 +  1:n_net015= 220.9775m   1:n_net020=   1.5966    1:n_net015= 220.9776m
 +  1:n_net015= 220.9776m   1:n_net015= 220.9774m   1:n_net015= 220.9776m
 +  1:n_net015= 220.9771m   1:n_net015= 220.9972m   1:n_net015= 221.0173m
 +  1:n_net015= 221.0263m   1:n_net015= 220.9771m   1:n_net015= 220.9771m
 +  1:n_net020=   1.5966    1:n_net015= 220.9771m   1:n_net015= 220.9771m
 +  1:n_net015= 220.9771m   1:n_net015= 220.9777m   1:n_net015= 220.9882m
 +  1:n_net015= 221.0368m   1:n_net015= 221.0078m   1:n_net016=   1.6715 
 +  1:n_net016=   1.6715    1:n_net014=   1.7656    1:n_net016=   1.6715 
 +  1:n_net016=   1.6715    1:n_net016=   1.6715    1:n_net016=   1.6715 
 +  1:n_net016=   1.6715    1:n_net016=   1.6715    1:n_net016=   1.6709 
 +  1:n_net016=   1.6714    1:n_net016=   1.6714    1:n_net016=   1.6715 
 +  1:n_xi12/n=  63.2610m   1:n_net016=   1.6715    1:n_net016=   1.6715 
 +  1:n_net016=   1.6715    1:n_net016=   1.6715    1:n_net016=   1.6715 
 +  1:n_net016=   1.6715    1:n_net016=   1.6715    1:n_net016=   1.6715 
 +  1:n_net016=   1.6715    1:n_net016=   1.6715    1:n_net14_=   1.5969 
 +  1:n_net016=   1.6715    1:n_net016=   1.6715    1:n_net016=   1.6715 
 +  1:n_net016=   1.6715    1:n_net016=   1.6715    1:n_net016=   1.6713 
 +  1:n_net016=   1.6713    1:n_net016=   1.6711    1:n_net016=   1.6710 
 +  1:n_net016=   1.6715    1:n_gnd!_x=  57.7236m   1:n_net016=   1.6715 
 +  1:n_net016=   1.6715    1:n_net016=   1.6714    1:n_net016=   1.6715 
 +  1:n_net016=   1.6710    1:n_net016=   1.6714    1:n_net016=   1.6712 
 +  1:n_net023=   5.0125m   1:n_net023=   4.9992m   1:n_net011=   1.7616 
 +  1:n_net023=   4.9992m   1:n_net023=   5.0123m   1:n_net023=   5.0124m
 +  1:n_net023=   4.9991m   1:n_net023=   4.9991m   1:n_net023=   5.0126m
 +  1:n_net023=   5.0126m   1:n_net023=   5.0127m   1:n_net023=   5.0125m
 +  1:n_net023=   5.0126m   1:n_xi12/n=  63.2613m   1:n_net023=   5.0127m
 +  1:n_net023=   5.0126m   1:n_net023=   5.3612m   1:n_net023=   5.3637m
 +  1:n_net023=   5.0117m   1:n_net023=   5.0126m   1:n_net023=   4.9991m
 +  1:n_net023=   4.9999m   1:n_net023=   5.0000m   1:n_net023=   5.0108m
 +  1:n_net011=   1.7608    1:n_net023=   5.0126m   1:n_net023=   5.2146m
 +  1:n_net023=   5.1128m   1:n_net023=   5.0666m   1:n_net023=   5.2141m
 +  1:n_net023=   5.2147m   1:n_net023=   5.1141m   1:n_net023=   5.3144m
 +  1:n_net023=   5.2609m   1:n_net023=   5.0131m   1:n_xi12/n=  63.2617m
 +  1:n_net023=   5.1603m   1:n_net015=   1.5960    1:n_net015=   1.5960 
 +  1:n_net015=   1.5960    1:n_net015=   1.5960    1:n_net015=   1.5960 
 +  1:n_net015=   1.5960    1:n_net015=   1.5960    1:n_net015=   1.5960 
 +  1:n_net14_=   1.5969    1:n_net015=   1.5960    1:n_net015=   1.5960 
 +  1:n_net015=   1.5960    1:n_net015=   1.5960    1:n_net015=   1.5960 
 +  1:n_net015=   1.5960    1:n_net015=   1.5960    1:n_net015=   1.5960 
 +  1:n_net015=   1.5960    1:n_net015=   1.5960    1:n_vdd!_x=   1.5952 
 +  1:n_net015=   1.5960    1:n_net015=   1.5960    1:n_net015=   1.5960 
 +  1:n_net015=   1.5960    1:n_net015=   1.5960    1:n_net015=   1.5960 
 +  1:n_net015=   1.5960    1:n_net015=   1.5960    1:n_net015=   1.5960 
 +  1:n_net015=   1.5960    1:n_net011=   1.7616    1:n_net015=   1.5960 
 +  1:n_net015=   1.5960    1:n_net015=   1.5960    1:n_net015=   1.5960 
 +  1:n_net015=   1.5960    1:n_net015=   4.9771m   1:n_net015=   4.9644m
 +  1:n_net015=   4.9644m   1:n_net015=   4.9770m   1:n_net14_=   1.5969 
 +  1:n_net015=   4.9771m   1:n_net015=   4.9771m   1:n_net015=   4.9643m
 +  1:n_net015=   4.9772m   1:n_net015=   4.9773m   1:n_net015=   4.9774m
 +  1:n_net015=   4.9772m   1:n_net015=   4.9772m   1:n_net015=   4.9773m
 +  1:n_net015=   4.9773m   1:n_net14_=   1.5969    1:n_net015=   4.9645m
 +  1:n_net015=   4.9773m   1:n_net015=   4.9651m   1:n_net015=   4.9643m
 +  1:n_net015=   4.9773m   1:n_net015=   4.9643m   1:n_net015=   5.3369m
 +  1:n_net015=   5.3394m   1:n_net015=   4.9764m   1:n_net015=   4.9756m
[...]
  cbtot        1.5512f      1.4920f      3.4223f      3.4190f      3.2821f
  cgs        247.5545a    296.8928a      1.4397f      1.4653f      1.1889f
  cgd        183.9660a    185.1016a      1.1883f      1.1779f      1.1042f



 subckt     x1           x1           x1           x1           x1        
 element    1:mxi74/xi   1:mxi5/mm3   1:mxi5/mm4   1:mxi5/mm5   1:mxi5/mm0
 model      0:pmos_vtg   0:nmos_vtg   0:nmos_vtg   0:nmos_vtg   0:pmos_vtg
 region         Cutoff       Cutoff       Cutoff       Linear       Linear
  id         -82.7068n     15.9557p    -38.9892n      4.2589u     -7.4127u
  ibs          5.8178a   -516.5956a     -1.4493p    326.7474f     -6.3107f
  ibd          1.4328p     -1.4493p    308.7968f    308.7661f      1.6370f
  vgs         -1.7521m   -221.1464m     -1.6657       1.6644      -1.6779 
  vds         -1.4326       1.4488      -1.6609       3.5552m     -7.9384m
  vbs          6.2007u   -523.0182u     -1.4493     215.1413m     -6.3028m
  vth       -256.4104m    303.1858m    247.5227m    370.3089m   -381.5648m
  vdsat      -40.9404m     39.5483m     38.9442m    662.1967m   -629.0130m
  vod        254.6583m   -524.3322m     -1.9132       1.2941      -1.2963 
  beta        19.7261m      8.9444m      9.9455m      3.2149m      1.4636m
  gam eff    400.0000m    400.0000m    400.0000m    400.0000m    400.0000m
  gm           2.2400u    446.7876p      1.0130u    222.1538n      1.2562u
  gds        317.8019n     39.6972p     95.4471n      1.1953m    927.7433u
  gmb        516.8980n    126.2935p    199.5589n    387.0864n    994.3671n
  cdtot        2.2590f    365.6361a    537.0550a    770.6157a    783.7413a
  cgtot        1.5604f    203.5479a    223.2044a    429.1228a    485.8984a
  cstot        2.7283f    431.7459a    323.9782a    497.4674a    519.2082a
  cbtot        3.9489f    683.7775a    709.7901a    821.4039a    817.0297a
  cgs        795.7479a     88.7939a     69.7902a    223.3072a    267.2555a
  cgd        503.6760a     69.7831a    124.8166a    210.5870a    222.2476a



 subckt     x1           x1           x1           x1           x1        
 element    1:mxi5/mm1   1:mxi5/mm2   1:mxi4/mm3   1:mxi4/mm4   1:mxi4/mm5
 model      0:pmos_vtg   0:pmos_vtg   0:nmos_vtg   0:nmos_vtg   0:nmos_vtg
 region         Cutoff       Cutoff       Cutoff       Cutoff       Cutoff
  id           7.9893f      3.7872f     17.3782p      1.5589p   -716.9224a
  ibs          1.6716p      1.6661p   -534.9243a     -1.4599p     -1.5628p
  ibd          1.6626p      1.6626p     -1.4599p     -1.5500p     -1.5500p
  vgs          4.2187m     -5.4835m   -219.0355m    106.4639m   -102.8324m
  vds          9.0435m      3.5600m      1.4594      90.0214m    -12.8110m
  vbs          1.6716       1.6661    -541.9791u     -1.4599      -1.5627 
  vth       -623.7431m   -624.2296m    302.3996m    637.8040m    655.0717m
  vdsat      -48.2471m    -48.2501m     39.5397m     41.7098m     41.7219m
  vod        627.9618m    618.7461m   -521.4351m   -531.3401m   -757.9041m
  beta         1.6231m      1.6221m      8.9580m      4.7344m      4.5909m
  gam eff    400.0000m    400.0000m    400.0000m    400.0000m    400.0000m
  gm         253.1581f    120.0056f    486.5965p     48.9033p     22.5878f
  gds        806.0131f      1.0285p     43.3305p      5.3272p     46.8201f
  gmb         34.0836f     16.1572f    137.3231p      7.4859p      3.5661f
  cdtot      421.5255a    422.0161a    365.1916a    404.2430a    392.4774a
  cgtot      258.9523a    260.5630a    203.5990a    255.4770a    222.6760a
  cstot      376.7355a    378.0529a    431.8929a    374.5835a    349.5807a
  cbtot      584.5876a    584.7473a    683.2666a    568.0858a    565.1377a
  cgs        117.6252a    118.7641a     88.9429a    120.7656a     99.2197a
  cgd        118.6881a    119.1786a     69.7663a    112.3437a    100.5789a



 subckt     x1           x1           x1           x1           x1        
 element    1:mxi4/mm0   1:mxi4/mm1   1:mxi4/mm2   1:mxi3/mm3   1:mxi3/mm4
 model      0:pmos_vtg   0:pmos_vtg   0:pmos_vtg   0:nmos_vtg   0:nmos_vtg
 region         Linear       Cutoff       Linear       Linear       Linear
  id          -4.0550u     52.7573n    -12.2306u      2.7196u      2.2674u
  ibs        -13.3264f      1.6690p   -113.8903f     -1.0848f     -3.4223f
  ibd         -8.9970f   -100.2832f   -100.2741f     -3.4223f     -5.3716f
  vgs         -1.6827       1.7844      -1.7807       1.5779       1.5742 
  vds         -4.3222m      1.7680     -12.7804m      2.3353m      1.9476m
  vbs        -13.3074m      1.6690    -111.7846m     -1.0839m     -3.4192m
  vth       -380.5015m   -207.9506m   -361.4234m    410.9870m    411.5055m
  vdsat     -631.0296m    -40.1181m   -671.7232m    608.8678m    607.0085m
  vod         -1.3022       1.9923      -1.4193       1.1669       1.1627 
  beta         1.4614m      3.2397m      1.4167m      3.2741m      3.2800m
  gam eff    400.0000m    400.0000m    400.0000m    400.0000m    400.0000m
  gm         670.3317n      1.3852u      1.6594u    223.3845n    188.0304n
  gds        934.8784u    222.0820n    947.7156u      1.1627m      1.1626m
  gmb        536.1581n    283.1759n      1.3291u    347.8451n    290.5257n
  cdtot      786.4392a    549.9541a    801.5987a    738.9912a    738.7492a
  cgtot      485.8178a    232.4491a    483.3586a    429.3185a    429.3427a
  cstot      519.0116a    333.2806a    526.8765a    478.0336a    477.7059a
  cbtot      819.0818a    727.2037a    838.2232a    777.4143a    776.8498a
  cgs        266.7573a     74.0840a    265.2386a    222.8856a    222.8743a
  cgd        222.7647a    124.1194a    222.7631a    209.5075a    209.5263a



 subckt     x1           x1           x1           x1           x1        
 element    1:mxi3/mm5   1:mxi3/mm0   1:mxi3/mm1   1:mxi3/mm2   1:mxi2/mm3
 model      0:nmos_vtg   0:pmos_vtg   0:pmos_vtg   0:pmos_vtg   0:nmos_vtg
 region         Cutoff       Cutoff       Cutoff       Cutoff       Linear
  id          -9.3432n   -600.8131p    -43.8956n    -39.8281n    402.0094n
  ibs         -1.5773p    -13.0615f   -132.0607f   -130.0586f   -650.4054a
  ibd         -5.3695f      1.4475p      1.4456p      1.4456p   -995.7322a
  vgs         -1.5738     115.0264m     -1.3768m      1.7389m      1.5683 
  vds         -1.5719      -1.4606      -1.5736      -1.5719     344.9917u
  vbs         -1.5773     -13.0425m   -128.0679m   -126.3288m   -649.9044u
  vth        295.0360m   -251.3435m   -220.0909m   -220.5460m    411.0441m
  vdsat       39.4886m    -40.7555m    -40.2019m    -40.1950m    604.5125m
  vod         -1.8689     366.3699m    218.7141m    222.2849m      1.1572 
  beta         9.0858m      2.9628m      3.1583m      3.1553m      3.2927m
  gam eff    400.0000m    400.0000m    400.0000m    400.0000m    400.0000m
  gm         255.6675n     16.6923n      1.1437u      1.0403u     33.3947n
  gds         23.4185n      2.3820n    176.2319n    160.0306n      1.1650m
  gmb         63.2375n      4.0742n    225.7637n    206.2047n     51.6948n
  cdtot      508.5486a    386.0086a    386.0978a    386.0947a    739.7050a
  cgtot      218.5693a    221.9510a    235.1675a    234.8480a    429.4083a
  cstot      319.8725a    466.1783a    493.7497a    493.1708a    477.7487a
  cbtot      686.3034a    714.7049a    719.4692a    719.4101a    777.8142a
  cgs         69.9847a    105.7948a    128.1688a    127.7014a    222.7395a
  cgd        110.3606a     74.5287a     74.5337a     74.5308a    209.7230a



 subckt     x1           x1           x1           x1           x1        
 element    1:mxi2/mm4   1:mxi2/mm5   1:mxi2/mm0   1:mxi2/mm1   1:mxi2/mm2
 model      0:nmos_vtg   0:nmos_vtg   0:pmos_vtg   0:pmos_vtg   0:pmos_vtg
 region         Cutoff       Cutoff       Cutoff       Linear       Cutoff
  id          26.8692p      6.1908u   -755.0264p    -25.1591u     34.9216n
  ibs       -980.7281a    285.6320f    -11.4705f   -118.1651f      1.6573p
  ibd         -1.5401p     -1.5401p      1.4500p    -89.9921f    -90.0001f
  vgs       -210.5047m    207.3488m    106.5325m     -1.7762       1.7730 
  vds          1.5391       1.7464      -1.4614     -26.5718m      1.7464 
  vbs       -994.8962u    206.3537m    -11.4543m   -115.7076m      1.6573 
  vth        296.5589m    242.0384m   -251.5823m   -359.5109m   -211.6329m
  vdsat       39.4759m     51.3717m    -40.7645m   -670.2458m    -40.1435m
  vod       -507.0637m    -34.6896m    358.1148m     -1.4166       1.9847 
  beta         9.0595m      9.8804m      2.9614m      1.4208m      3.2144m
  gam eff    400.0000m    400.0000m    400.0000m    400.0000m    400.0000m
  gm         752.2046p    115.4995u     20.9616n      3.5976u    925.5188n
  gds         68.1282p     11.8655u      2.9933n    927.7584u    147.4070n
  gmb        210.5026p     20.5511u      5.0981n      2.7387u    192.8387n
  cdtot      361.9102a    361.9769a    385.9238a    796.7399a    547.3443a
  cgtot      203.7428a    245.7462a    222.5992a    483.3631a    231.3030a
  cstot      432.4577a    502.8747a    466.9255a    529.8519a    333.6834a
  cbtot      679.7316a    684.1107a    714.2551a    836.6509a    726.9372a
  cgs         89.5588a    153.5743a    106.5804a    266.9549a     74.1064a
  cgd         69.6315a     69.2295a     74.5470a    221.0337a    122.2154a



 subckt     x1           x1           x1           x1           x1        
 element    1:mxi1/mm3   1:mxi1/mm4   1:mxi1/mm5   1:mxi1/mm0   1:mxi1/mm1
 model      0:nmos_vtg   0:nmos_vtg   0:nmos_vtg   0:pmos_vtg   0:pmos_vtg
 region         Cutoff       Cutoff       Cutoff       Linear       Cutoff
  id          17.2014p      1.9513p   -484.8396a     -3.8863u     58.0001n
  ibs       -573.7777a     -1.4559p     -1.5650p     -9.1317f      1.6689p
  ibd         -1.4559p     -1.5539p     -1.5539p     -4.9788f   -104.3950f
  vgs       -219.0290m    112.1737m   -109.0239m     -1.6785       1.7860 
  vds          1.4553      97.9337m    -11.0903m     -4.1470m      1.7718 
  vbs       -580.4784u     -1.4559      -1.5649      -9.1197m      1.6689 
  vth        302.7093m    636.6964m    655.6940m   -381.3432m   -206.9148m
  vdsat       39.5431m     41.7067m     41.7214m   -629.2369m    -40.1076m
  vod       -521.7383m   -524.5227m   -764.7180m     -1.2972       1.9930 
  beta         8.9526m      4.7438m      4.5858m      1.4634m      3.2469m
  gam eff    400.0000m    400.0000m    400.0000m    400.0000m    400.0000m
  gm         481.6530p     61.2009p     15.2780f    648.5854n      1.5189u
  gds         42.8539p      6.2789p     37.6111f    933.9584u    243.9004n
  gmb        135.9477p      9.3612p      2.4146f    518.4005n    308.6250n
  cdtot      365.3607a    403.8592a    391.4855a    785.7188a    550.7655a
  cgtot      203.6057a    255.6770a    221.2092a    485.9220a    232.7401a
  cstot      431.8889a    375.1649a    348.8657a    518.7193a    333.2791a
  cbtot      683.4215a    568.0678a    564.9374a    818.2653a    727.5094a
  cgs         88.9434a    121.2082a     98.5760a    266.8290a     74.0807a
  cgd         69.7743a    112.1088a     99.7360a    222.7404a    124.6558a



 subckt     x1           x1           x1           x1           x1        
 element    1:mxi1/mm2   1:mxi0/mm3   1:mxi0/mm4   1:mxi0/mm5   1:mxi0/mm0
 model      0:pmos_vtg   0:nmos_vtg   0:nmos_vtg   0:nmos_vtg   0:pmos_vtg
 region         Linear       Linear       Cutoff       Cutoff       Cutoff
  id         -10.6071u    402.6188n     26.8903p      6.2007u   -665.9225p
  ibs       -116.2618f   -666.8660a   -997.6197a    285.6393f     -8.3047f
  ibd       -104.3857f     -1.0127f     -1.5407p     -1.5407p      1.4500p
  vgs         -1.7828       1.5684    -210.5293m    207.3675m    109.8292m
  vds        -11.0637m    345.5121u      1.5397       1.7471      -1.4582 
  vbs       -113.9670m   -666.3491u     -1.0119m    206.3555m     -8.2935m
  vth       -361.1922m    411.0475m    296.5154m    241.9897m   -252.4888m
  vdsat     -672.5478m    604.5648m     39.4755m     51.3845m    -40.7851m
  vod         -1.4216       1.1573    -507.0447m    -34.6222m    362.3180m
  beta         1.4156m      3.2925m      9.0603m      9.8811m      2.9561m
  gam eff    400.0000m    400.0000m    400.0000m    400.0000m    400.0000m
  gm           1.4237u     33.4357n    752.7951p    115.6587u     18.5065n
  gds        950.7018u      1.1650m     68.1909p     11.8846u      2.6373n
  gmb          1.1473u     51.7686n    210.6627p     20.5790u      4.5271n
  cdtot      802.6591a    739.7052a    361.8840a    361.9499a    385.9243a
  cgtot      483.3205a    429.4074a    203.7401a    245.7654a    222.2388a
  cstot      526.7155a    477.7452a    432.4540a    502.8920a    466.1790a
  cbtot      838.9955a    777.8097a    679.7050a    684.0860a    714.1701a
  cgs        264.9925a    222.7379a     89.5570a    153.6002a    105.9258a
  cgd        222.9885a    209.7239a     69.6303a     69.2266a     74.5467a



 subckt     x1           x1           x1           x1           x1        
 element    1:mxi0/mm1   1:mxi0/mm2   1:mxi7/mm3   1:mxi7/mm4   1:mxi7/mm5
 model      0:pmos_vtg   0:pmos_vtg   0:nmos_vtg   0:nmos_vtg   0:nmos_vtg
 region         Linear       Cutoff       Cutoff       Cutoff       Cutoff
  id         -24.7216u     35.5861n     17.0535p      2.0804p   -551.0696a
  ibs       -118.3576f      1.6573p   -588.7363a     -1.4529p     -1.5632p
  ibd        -90.6627f    -90.6707f     -1.4529p     -1.5506p     -1.5506p
  vgs         -1.7763       1.7732    -219.0652m    113.7819m   -110.2272m
  vds        -26.0993m      1.7471       1.4523      97.6909m    -12.5363m
  vbs       -115.8831m      1.6573    -595.1972u     -1.4529      -1.5631 
  vth       -359.5221m   -211.4583m    302.9367m    636.3268m    655.1759m
  vdsat     -670.3096m    -40.1413m     39.5456m     41.7076m     41.7218m
  vod         -1.4168       1.9847    -522.0020m   -522.5449m   -765.4031m
  beta         1.4207m      3.2156m      8.9487m      4.7470m      4.5900m
  gam eff    400.0000m    400.0000m    400.0000m    400.0000m    400.0000m
  gm           3.5281u    942.7147n    477.5149p     65.2382p     17.3628f
  gds        928.4733u    150.1877n     42.4590p      6.7041p     36.9446f
  gmb          2.6898u    196.2084n    134.7984p      9.9811p      2.7459f
  cdtot      796.9626a    547.4922a    365.4872a    404.1803a    391.6349a
  cgtot      483.3632a    231.3619a    203.6099a    256.0034a    221.1257a
  cstot      529.7749a    333.6830a    431.8846a    375.3914a    348.8003a
  cbtot      836.7716a    726.9838a    683.5412a    568.3018a    565.1347a
  cgs        266.8951a     74.1061a     88.9408a    121.3308a     98.4519a
  cgd        221.0956a    122.3187a     69.7802a    112.3063a     99.7616a



 subckt     x1           x1           x1           x1           x1        
 element    1:mxi7/mm0   1:mxi7/mm1   1:mxi7/mm2   1:mxi6/mm3   1:mxi6/mm4
 model      0:pmos_vtg   0:pmos_vtg   0:pmos_vtg   0:nmos_vtg   0:nmos_vtg
 region         Linear       Cutoff       Linear       Linear       Linear
  id          -3.7661u     53.5779n    -11.9719u      1.6501u      1.1910u
  ibs         -6.0049f      1.6690p   -114.3087f   -919.1019a     -2.3365f
  ibd         -1.9777f   -100.9771f   -100.9680f     -2.3365f     -3.3596f
  vgs         -1.6754       1.7847      -1.7811       1.5781       1.5753 
  vds         -4.0222m      1.7686     -12.5064m      1.4160m      1.0222m
  vbs         -5.9974m      1.6689    -112.1707m   -918.3498u     -2.3344m
  vth       -381.9729m   -207.7765m   -361.3798m    411.0207m    411.3470m
  vdsat     -627.9205m    -40.1161m   -671.8635m    608.9277m    607.5456m
  vod         -1.2934       1.9925      -1.4197       1.1671       1.1639 
  beta         1.4648m      3.2409m      1.4165m      3.2737m      3.2783m
  gam eff    400.0000m    400.0000m    400.0000m    400.0000m    400.0000m
  gm         632.9705n      1.4062u      1.6214u    134.6365n     97.7812n
  gds        933.2667u    225.4992n    948.1990u      1.1642m      1.1644m
  gmb        505.6769n    287.1674n      1.2999u    210.8864n    152.4177n
  cdtot      785.1804a    550.0889a    801.7750a    739.4198a    739.3298a
  cgtot      485.9980a    232.4965a    483.3520a    429.3256a    429.3459a
  cstot      518.5015a    333.2809a    526.8535a    477.8371a    477.6082a
  cbtot      817.6573a    727.2563a    838.3546a    777.5884a    777.2682a
  cgs        266.8803a     74.0835a    265.1987a    222.7575a    222.7360a
  cgd        222.7219a    124.2080a    222.7995a    209.6465a    209.6769a



 subckt     x1           x1           x1           x1        
 element    1:mxi6/mm5   1:mxi6/mm0   1:mxi6/mm1   1:mxi6/mm2
 model      0:nmos_vtg   0:pmos_vtg   0:pmos_vtg   0:pmos_vtg
 region         Cutoff       Cutoff       Cutoff       Cutoff
  id          -9.7626n   -465.8921p    -44.2682n    -40.1224n
  ibs         -1.5773p     -6.3505f   -132.0599f   -130.0347f
  ibd         -3.3575f      1.4486p      1.4476p      1.4476p
  vgs         -1.5749     121.7263m     -1.3917m      1.7590m
  vds         -1.5739      -1.4549      -1.5756      -1.5739 
  vbs         -1.5772      -6.3419m   -128.0671m   -126.3079m
  vth        294.4668m   -253.1660m   -219.9127m   -220.3731m
  vdsat       39.4827m    -40.7983m    -40.2008m    -40.1937m
  vod         -1.8694     374.8924m    218.5210m    222.1322m
  beta         9.0958m      2.9521m      3.1595m      3.1564m
  gam eff    400.0000m    400.0000m    400.0000m    400.0000m
  gm         266.9278n     12.9693n      1.1533u      1.0479u
  gds         24.4639n      1.8438n    177.8438n    161.3205n
  gmb         66.0517n      3.2037n    227.6266n    207.6956n
  cdtot      508.9156a    385.9599a    386.0075a    386.0044a
  cgtot      218.6944a    221.2264a    235.1642a    234.8411a
  cstot      319.8708a    464.6459a    493.7516a    493.1661a
  cbtot      686.5954a    714.4734a    719.3833a    719.3235a
  cgs         69.9823a    104.4522a    128.1707a    127.6979a
  cgd        110.4623a     74.5261a     74.5290a     74.5260a




          ***** job concluded
1****** HSPICE -- D-2010.03-SP2 32-BIT (Aug 26 2010) linux ******               
 ******  
 

  ******  job statistics summary tnom=  25.000 temp=  25.000 *****
 
 
 ******  Machine Information  ******
 CPU:
 model name	: Intel(R) Xeon(R) CPU E5-1620 0 @ 3.60GHz
 cpu MHz	: 1200.000
 
 OS:
 Linux version 2.6.32-358.6.2.el6.x86_64 (mockbuild@x86-022.build.eng.bos.redhat
 .com) (gcc version 4.4.7 20120313 (Red Hat 4.4.7-3) (GCC) ) #1 SMP Tue May 14 1
 5:48:21 EDT 2013


  ******  HSPICE Threads Information  ******

  Command Line Threads Count                  :     1
  Available CPU Count                         :     8
  Actual Model Evaluation(Load) Threads Count :     1
  Actual Solver Threads Count                 :     1


  ******  Circuit Statistics  ******
  # nodes       =   12401 # elements   =   39117
  # resistors   =   11258 # capacitors =   27367 # inductors   =       0
  # mutual_inds =       0 # vccs       =       0 # vcvs        =       0
  # cccs        =       0 # ccvs       =       0 # volt_srcs   =      18
  # curr_srcs   =       0 # diodes     =       0 # bjts        =       0
  # jfets       =       0 # mosfets    =     474 # U elements  =       0
  # T elements  =       0 # W elements =       0 # B elements  =       0
  # S elements  =       0 # P elements =       0 # va device   =       0


  ******  Runtime Statistics (seconds)  ******

  analysis           time    # points   tot. iter  conv.iter
  op point           4.86           1         314
  transient         34.12         101        2254         730 rev=         5
  readin             0.64
  errchk             0.22
  setup              0.70
  output             0.00


           total memory used        23842  kbytes
           total cpu time           40.49 seconds
           total elapsed time       43.82 seconds
           job started at     14:54:25 06/06/2013
           job ended   at     14:55:09 06/06/2013


 lic: Release hspice token(s) 
