Using: /usr/bin/time -p /vol/synopsys2010/hspice_vD-2010.03-SP2/hspice/linux/hspice 8BIT_SELECT_layout.sp
