Using: /usr/bin/time -p /vol/synopsys2010/hspice_vD-2010.03-SP2/hspice/linux/hspice BIT_SELECT_layout.sp
 ****** HSPICE -- D-2010.03-SP2 32-BIT (Aug 26 2010) linux ******               
  Copyright (C) 2010 Synopsys, Inc. All Rights Reserved.                        
  Unpublished-rights reserved under US copyright laws.
  This program is protected by law and is subject to the 
  terms and conditions of the license agreement from Synopsys.
  Use of this program is your acceptance to be bound by the 
  license agreement. HSPICE is the trademark of Synopsys, Inc.
  Input File: BIT_SELECT_layout.sp                                              
 lic:  
 lic: FLEXlm: v10.8 
 lic: USER:   sjz474               HOSTNAME: robin.ece.northwestern.edu 
 lic: HOSTID: 1803731fd9bd         PID:      30390 
 lic: Using FLEXlm license file: 
 lic: -1@cadfs.ece.northwestern.edu 
 lic: Checkout 1 hspice 
 lic: License/Maintenance for hspice will expire on 15-oct-2013/2012.06 
 lic: 1(in_use)/50(total) FLOATING license(s) on SERVER cadfs.ece.northwestern.e
 lic:   
 Init: read install configuration file: /vol/synopsys2010/hspice_vD-2010.03-SP2/hspice/meta.cfg
 **warning** Warning(s) associated with encrypted block(s) were suppressed due to encrypted content.
1****** HSPICE -- D-2010.03-SP2 32-BIT (Aug 26 2010) linux ******               
 ******  
 .include

  ******  circuit name directory
 circuit number to circuit name directory
   number circuitname                     definition         multiplier
        0 main circuit
        1 x1.                             bit_select         1.00 
        2 x1.x_pm_bit_select%xi1/xi11/net10.
                                            pm_bit_select%xi1/xi11/net10
                                                                 1.00 
        3 x1.x_pm_bit_select%xi1/xi12/net10.
                                            pm_bit_select%xi1/xi12/net10
                                                                 1.00 
        4 x1.x_pm_bit_select%xi1/xi13/net10.
                                            pm_bit_select%xi1/xi13/net10
                                                                 1.00 
        5 x1.x_pm_bit_select%xi1/xi14/net10.
                                            pm_bit_select%xi1/xi14/net10
                                                                 1.00 
        6 x1.x_pm_bit_select%xi1/xi10/net10.
                                            pm_bit_select%xi1/xi10/net10
                                                                 1.00 
        7 x1.x_pm_bit_select%xi3/xi0/xi0/net9.
                                            pm_bit_select%xi3/xi0/xi0/net9
                                                                 1.00 
        8 x1.x_pm_bit_select%xi3/xi3/xi5/net9.
                                            pm_bit_select%xi3/xi3/xi5/net9
                                                                 1.00 
        9 x1.x_pm_bit_select%xi3/xi3/xi0/net9.
                                            pm_bit_select%xi3/xi3/xi0/net9
                                                                 1.00 
       10 x1.x_pm_bit_select%xi3/xi1/xi5/net9.
                                            pm_bit_select%xi3/xi1/xi5/net9
                                                                 1.00 
       11 x1.x_pm_bit_select%xi3/xi1/xi0/net9.
                                            pm_bit_select%xi3/xi1/xi0/net9
                                                                 1.00 
       12 x1.x_pm_bit_select%xi3/xi2/xi5/net9.
                                            pm_bit_select%xi3/xi2/xi5/net9
                                                                 1.00 
       13 x1.x_pm_bit_select%xi3/xi2/xi0/net9.
                                            pm_bit_select%xi3/xi2/xi0/net9
                                                                 1.00 
       14 x1.x_pm_bit_select%xi1/xi4/xi5/net9.
                                            pm_bit_select%xi1/xi4/xi5/net9
                                                                 1.00 
       15 x1.x_pm_bit_select%xi1/xi4/xi0/net9.
                                            pm_bit_select%xi1/xi4/xi0/net9
                                                                 1.00 
       16 x1.x_pm_bit_select%xi1/xi5/xi5/net9.
                                            pm_bit_select%xi1/xi5/xi5/net9
                                                                 1.00 
       17 x1.x_pm_bit_select%xi1/xi5/xi0/net9.
                                            pm_bit_select%xi1/xi5/xi0/net9
                                                                 1.00 
       18 x1.x_pm_bit_select%xi1/xi0/xi5/net9.
                                            pm_bit_select%xi1/xi0/xi5/net9
                                                                 1.00 
       19 x1.x_pm_bit_select%xi1/xi0/xi0/net9.
                                            pm_bit_select%xi1/xi0/xi0/net9
                                                                 1.00 
       20 x1.x_pm_bit_select%xi1/xi1/xi5/net9.
                                            pm_bit_select%xi1/xi1/xi5/net9
                                                                 1.00 
       21 x1.x_pm_bit_select%xi1/xi1/xi0/net9.
                                            pm_bit_select%xi1/xi1/xi0/net9
                                                                 1.00 
       22 x1.x_pm_bit_select%xi1/xi6/xi5/net9.
                                            pm_bit_select%xi1/xi6/xi5/net9
                                                                 1.00 
       23 x1.x_pm_bit_select%xi1/xi6/xi0/net9.
                                            pm_bit_select%xi1/xi6/xi0/net9
                                                                 1.00 
       24 x1.x_pm_bit_select%xi1/xi7/xi5/net9.
                                            pm_bit_select%xi1/xi7/xi5/net9
                                                                 1.00 
       25 x1.x_pm_bit_select%xi1/xi7/xi0/net9.
                                            pm_bit_select%xi1/xi7/xi0/net9
                                                                 1.00 
       26 x1.x_pm_bit_select%xi1/xi2/xi5/net9.
                                            pm_bit_select%xi1/xi2/xi5/net9
                                                                 1.00 
       27 x1.x_pm_bit_select%xi1/xi2/xi0/net9.
                                            pm_bit_select%xi1/xi2/xi0/net9
                                                                 1.00 
       28 x1.x_pm_bit_select%xi1/xi3/xi5/net9.
                                            pm_bit_select%xi1/xi3/xi5/net9
                                                                 1.00 
       29 x1.x_pm_bit_select%xi1/xi3/xi0/net9.
                                            pm_bit_select%xi1/xi3/xi0/net9
                                                                 1.00 
       30 x1.x_pm_bit_select%xi3/xi0/xi2/net8.
                                            pm_bit_select%xi3/xi0/xi2/net8
                                                                 1.00 
       31 x1.x_pm_bit_select%xi3/xi3/xi8/net8.
                                            pm_bit_select%xi3/xi3/xi8/net8
                                                                 1.00 
       32 x1.x_pm_bit_select%xi3/xi3/xi9/net8.
                                            pm_bit_select%xi3/xi3/xi9/net8
                                                                 1.00 
       33 x1.x_pm_bit_select%xi3/xi1/xi8/net8.
                                            pm_bit_select%xi3/xi1/xi8/net8
                                                                 1.00 
       34 x1.x_pm_bit_select%xi3/xi1/xi9/net8.
                                            pm_bit_select%xi3/xi1/xi9/net8
                                                                 1.00 
       35 x1.x_pm_bit_select%xi3/xi2/xi8/net8.
                                            pm_bit_select%xi3/xi2/xi8/net8
                                                                 1.00 
       36 x1.x_pm_bit_select%xi3/xi2/xi9/net8.
                                            pm_bit_select%xi3/xi2/xi9/net8
                                                                 1.00 
       37 x1.x_pm_bit_select%xi1/xi4/xi8/net8.
                                            pm_bit_select%xi1/xi4/xi8/net8
                                                                 1.00 
       38 x1.x_pm_bit_select%xi1/xi4/xi9/net8.
                                            pm_bit_select%xi1/xi4/xi9/net8
                                                                 1.00 
       39 x1.x_pm_bit_select%xi1/xi5/xi8/net8.
                                            pm_bit_select%xi1/xi5/xi8/net8
                                                                 1.00 
       40 x1.x_pm_bit_select%xi1/xi5/xi9/net8.
                                            pm_bit_select%xi1/xi5/xi9/net8
                                                                 1.00 
       41 x1.x_pm_bit_select%xi1/xi0/xi8/net8.
                                            pm_bit_select%xi1/xi0/xi8/net8
                                                                 1.00 
       42 x1.x_pm_bit_select%xi1/xi0/xi9/net8.
                                            pm_bit_select%xi1/xi0/xi9/net8
                                                                 1.00 
       43 x1.x_pm_bit_select%xi1/xi1/xi8/net8.
                                            pm_bit_select%xi1/xi1/xi8/net8
                                                                 1.00 
       44 x1.x_pm_bit_select%xi1/xi1/xi9/net8.
                                            pm_bit_select%xi1/xi1/xi9/net8
                                                                 1.00 
       45 x1.x_pm_bit_select%xi1/xi6/xi8/net8.
                                            pm_bit_select%xi1/xi6/xi8/net8
                                                                 1.00 
       46 x1.x_pm_bit_select%xi1/xi6/xi9/net8.
                                            pm_bit_select%xi1/xi6/xi9/net8
                                                                 1.00 
       47 x1.x_pm_bit_select%xi1/xi7/xi8/net8.
                                            pm_bit_select%xi1/xi7/xi8/net8
                                                                 1.00 
       48 x1.x_pm_bit_select%xi1/xi7/xi9/net8.
                                            pm_bit_select%xi1/xi7/xi9/net8
                                                                 1.00 
       49 x1.x_pm_bit_select%xi1/xi2/xi8/net8.
                                            pm_bit_select%xi1/xi2/xi8/net8
                                                                 1.00 
       50 x1.x_pm_bit_select%xi1/xi2/xi9/net8.
                                            pm_bit_select%xi1/xi2/xi9/net8
                                                                 1.00 
       51 x1.x_pm_bit_select%xi1/xi3/xi8/net8.
                                            pm_bit_select%xi1/xi3/xi8/net8
                                                                 1.00 
       52 x1.x_pm_bit_select%xi1/xi3/xi9/net8.
                                            pm_bit_select%xi1/xi3/xi9/net8
                                                                 1.00 
       53 x1.x_pm_bit_select%xi3/xi3/net11.
                                            pm_bit_select%xi3/xi3/net11
                                                                 1.00 
       54 x1.x_pm_bit_select%xi3/xi3/net14.
                                            pm_bit_select%xi3/xi3/net14
                                                                 1.00 
       55 x1.x_pm_bit_select%xi3/xi3/net7.
                                            pm_bit_select%xi3/xi3/net7
                                                                 1.00 
       56 x1.x_pm_bit_select%xi3/xi3/xi7/net7.
                                            pm_bit_select%xi3/xi3/xi7/net7
                                                                 1.00 
       57 x1.x_pm_bit_select%xi3/xi1/net11.
                                            pm_bit_select%xi3/xi1/net11
                                                                 1.00 
       58 x1.x_pm_bit_select%xi3/xi1/net14.
                                            pm_bit_select%xi3/xi1/net14
                                                                 1.00 
       59 x1.x_pm_bit_select%xi3/xi1/net7.
                                            pm_bit_select%xi3/xi1/net7
                                                                 1.00 
       60 x1.x_pm_bit_select%xi3/xi1/xi7/net7.
                                            pm_bit_select%xi3/xi1/xi7/net7
                                                                 1.00 
       61 x1.x_pm_bit_select%xi3/xi2/net11.
                                            pm_bit_select%xi3/xi2/net11
                                                                 1.00 
       62 x1.x_pm_bit_select%xi3/xi2/net14.
                                            pm_bit_select%xi3/xi2/net14
                                                                 1.00 
       63 x1.x_pm_bit_select%xi3/xi2/net7.
                                            pm_bit_select%xi3/xi2/net7
                                                                 1.00 
       64 x1.x_pm_bit_select%xi3/xi2/xi7/net7.
                                            pm_bit_select%xi3/xi2/xi7/net7
                                                                 1.00 
       65 x1.x_pm_bit_select%xi1/xi4/net11.
                                            pm_bit_select%xi1/xi4/net11
                                                                 1.00 
       66 x1.x_pm_bit_select%xi1/xi4/net14.
                                            pm_bit_select%xi1/xi4/net14
                                                                 1.00 
       67 x1.x_pm_bit_select%xi1/xi4/net7.
                                            pm_bit_select%xi1/xi4/net7
                                                                 1.00 
       68 x1.x_pm_bit_select%xi1/xi4/xi7/net7.
                                            pm_bit_select%xi1/xi4/xi7/net7
                                                                 1.00 
       69 x1.x_pm_bit_select%xi1/xi5/net11.
                                            pm_bit_select%xi1/xi5/net11
                                                                 1.00 
       70 x1.x_pm_bit_select%xi1/xi5/net14.
                                            pm_bit_select%xi1/xi5/net14
                                                                 1.00 
       71 x1.x_pm_bit_select%xi1/xi5/net7.
                                            pm_bit_select%xi1/xi5/net7
                                                                 1.00 
       72 x1.x_pm_bit_select%xi1/xi5/xi7/net7.
                                            pm_bit_select%xi1/xi5/xi7/net7
                                                                 1.00 
       73 x1.x_pm_bit_select%xi1/xi0/net11.
                                            pm_bit_select%xi1/xi0/net11
                                                                 1.00 
       74 x1.x_pm_bit_select%xi1/xi0/net14.
                                            pm_bit_select%xi1/xi0/net14
                                                                 1.00 
       75 x1.x_pm_bit_select%xi1/xi0/net7.
                                            pm_bit_select%xi1/xi0/net7
                                                                 1.00 
       76 x1.x_pm_bit_select%xi1/xi0/xi7/net7.
                                            pm_bit_select%xi1/xi0/xi7/net7
                                                                 1.00 
       77 x1.x_pm_bit_select%xi1/xi1/net11.
                                            pm_bit_select%xi1/xi1/net11
                                                                 1.00 
       78 x1.x_pm_bit_select%xi1/xi1/net14.
                                            pm_bit_select%xi1/xi1/net14
                                                                 1.00 
       79 x1.x_pm_bit_select%xi1/xi1/net7.
                                            pm_bit_select%xi1/xi1/net7
                                                                 1.00 
       80 x1.x_pm_bit_select%xi1/xi1/xi7/net7.
                                            pm_bit_select%xi1/xi1/xi7/net7
                                                                 1.00 
       81 x1.x_pm_bit_select%xi1/xi6/net11.
                                            pm_bit_select%xi1/xi6/net11
                                                                 1.00 
       82 x1.x_pm_bit_select%xi1/xi6/net14.
                                            pm_bit_select%xi1/xi6/net14
                                                                 1.00 
       83 x1.x_pm_bit_select%xi1/xi6/net7.
                                            pm_bit_select%xi1/xi6/net7
                                                                 1.00 
       84 x1.x_pm_bit_select%xi1/xi6/xi7/net7.
                                            pm_bit_select%xi1/xi6/xi7/net7
                                                                 1.00 
       85 x1.x_pm_bit_select%xi1/xi7/net11.
                                            pm_bit_select%xi1/xi7/net11
                                                                 1.00 
       86 x1.x_pm_bit_select%xi1/xi7/net14.
                                            pm_bit_select%xi1/xi7/net14
                                                                 1.00 
       87 x1.x_pm_bit_select%xi1/xi7/net7.
                                            pm_bit_select%xi1/xi7/net7
                                                                 1.00 
       88 x1.x_pm_bit_select%xi1/xi7/xi7/net7.
                                            pm_bit_select%xi1/xi7/xi7/net7
                                                                 1.00 
       89 x1.x_pm_bit_select%xi1/xi2/net11.
                                            pm_bit_select%xi1/xi2/net11
                                                                 1.00 
       90 x1.x_pm_bit_select%xi1/xi2/net14.
                                            pm_bit_select%xi1/xi2/net14
                                                                 1.00 
       91 x1.x_pm_bit_select%xi1/xi2/net7.
                                            pm_bit_select%xi1/xi2/net7
                                                                 1.00 
       92 x1.x_pm_bit_select%xi1/xi2/xi7/net7.
                                            pm_bit_select%xi1/xi2/xi7/net7
                                                                 1.00 
       93 x1.x_pm_bit_select%xi1/xi3/net11.
                                            pm_bit_select%xi1/xi3/net11
                                                                 1.00 
       94 x1.x_pm_bit_select%xi1/xi3/net14.
                                            pm_bit_select%xi1/xi3/net14
                                                                 1.00 
       95 x1.x_pm_bit_select%xi1/xi3/net7.
                                            pm_bit_select%xi1/xi3/net7
                                                                 1.00 
       96 x1.x_pm_bit_select%xi1/xi3/xi7/net7.
                                            pm_bit_select%xi1/xi3/xi7/net7
                                                                 1.00 
       97 x1.x_pm_bit_select%b<0>.        pm_bit_select%b<0>
                                                                 1.00 
       98 x1.x_pm_bit_select%xi3/net5.    pm_bit_select%xi3/net5
                                                                 1.00 
       99 x1.x_pm_bit_select%xi3/net6.    pm_bit_select%xi3/net6
                                                                 1.00 
      100 x1.x_pm_bit_select%xi3/net7.    pm_bit_select%xi3/net7
                                                                 1.00 
      101 x1.x_pm_bit_select%vdd!.        pm_bit_select%vdd!
                                                                 1.00 
      102 x1.x_pm_bit_select%net9.        pm_bit_select%net9
                                                                 1.00 
      103 x1.x_pm_bit_select%gnd!.        pm_bit_select%gnd!
                                                                 1.00 
      104 x1.x_pm_bit_select%xi1/net028.  pm_bit_select%xi1/net028
                                                                 1.00 
      105 x1.x_pm_bit_select%xi1/net45.   pm_bit_select%xi1/net45
                                                                 1.00 
      106 x1.x_pm_bit_select%xi1/net24.   pm_bit_select%xi1/net24
                                                                 1.00 
      107 x1.x_pm_bit_select%xi1/net44.   pm_bit_select%xi1/net44
                                                                 1.00 
      108 x1.x_pm_bit_select%xi1/net027.  pm_bit_select%xi1/net027
                                                                 1.00 
      109 x1.x_pm_bit_select%xi1/net40.   pm_bit_select%xi1/net40
                                                                 1.00 
      110 x1.x_pm_bit_select%xi1/net19.   pm_bit_select%xi1/net19
                                                                 1.00 
      111 x1.x_pm_bit_select%xi1/net018.  pm_bit_select%xi1/net018
                                                                 1.00 
      112 x1.x_pm_bit_select%xi1/net026.  pm_bit_select%xi1/net026
                                                                 1.00 
      113 x1.x_pm_bit_select%xi1/net35.   pm_bit_select%xi1/net35
                                                                 1.00 
      114 x1.x_pm_bit_select%xi1/net14.   pm_bit_select%xi1/net14
                                                                 1.00 
      115 x1.x_pm_bit_select%xi1/net34.   pm_bit_select%xi1/net34
                                                                 1.00 
      116 x1.x_pm_bit_select%xi1/net025.  pm_bit_select%xi1/net025
                                                                 1.00 
      117 x1.x_pm_bit_select%xi1/net30.   pm_bit_select%xi1/net30
                                                                 1.00 
      118 x1.x_pm_bit_select%xi1/net9.    pm_bit_select%xi1/net9
                                                                 1.00 
      119 x1.x_pm_bit_select%xi1/net29.   pm_bit_select%xi1/net29
                                                                 1.00 
      120 x1.x_pm_bit_select%a<0>.        pm_bit_select%a<0>
                                                                 1.00 
      121 x1.x_pm_bit_select%s<4>.        pm_bit_select%s<4>
                                                                 1.00 
      122 x1.x_pm_bit_select%s<5>.        pm_bit_select%s<5>
                                                                 1.00 
      123 x1.x_pm_bit_select%s<6>.        pm_bit_select%s<6>
                                                                 1.00 
      124 x1.x_pm_bit_select%s<7>.        pm_bit_select%s<7>
                                                                 1.00 
      125 x1.x_pm_bit_select%cout.        pm_bit_select%cout
                                                                 1.00 
      126 x1.x_pm_bit_select%s<0>.        pm_bit_select%s<0>
                                                                 1.00 
      127 x1.x_pm_bit_select%s<3>.        pm_bit_select%s<3>
                                                                 1.00 
      128 x1.x_pm_bit_select%s<1>.        pm_bit_select%s<1>
                                                                 1.00 
      129 x1.x_pm_bit_select%s<2>.        pm_bit_select%s<2>
                                                                 1.00 
      130 x1.x_pm_bit_select%b<4>.        pm_bit_select%b<4>
                                                                 1.00 
      131 x1.x_pm_bit_select%a<4>.        pm_bit_select%a<4>
                                                                 1.00 
      132 x1.x_pm_bit_select%b<5>.        pm_bit_select%b<5>
                                                                 1.00 
      133 x1.x_pm_bit_select%a<5>.        pm_bit_select%a<5>
                                                                 1.00 
      134 x1.x_pm_bit_select%b<6>.        pm_bit_select%b<6>
                                                                 1.00 
      135 x1.x_pm_bit_select%a<6>.        pm_bit_select%a<6>
                                                                 1.00 
      136 x1.x_pm_bit_select%b<7>.        pm_bit_select%b<7>
                                                                 1.00 
      137 x1.x_pm_bit_select%a<7>.        pm_bit_select%a<7>
                                                                 1.00 
      138 x1.x_pm_bit_select%b<3>.        pm_bit_select%b<3>
                                                                 1.00 
      139 x1.x_pm_bit_select%a<3>.        pm_bit_select%a<3>
                                                                 1.00 
      140 x1.x_pm_bit_select%b<1>.        pm_bit_select%b<1>
                                                                 1.00 
      141 x1.x_pm_bit_select%a<1>.        pm_bit_select%a<1>
                                                                 1.00 
      142 x1.x_pm_bit_select%b<2>.        pm_bit_select%b<2>
                                                                 1.00 
      143 x1.x_pm_bit_select%a<2>.        pm_bit_select%a<2>
                                                                 1.00 
1****** HSPICE -- D-2010.03-SP2 32-BIT (Aug 26 2010) linux ******               
 ******  
 .include

  ******  mos   model parameters tnom=  25.000 temp=  25.000 *****
 
Model Name: nmos_vtg  

 BSIM4 Model (Level 54)

    MOBMOD = 0
    BINUNIT = 1
    PARAMCHK = 1
    CAPMOD = 2
    DIOMOD = 1
    RDSMOD = 0
    TRNQSMOD = 0
    ACNQSMOD = 0
    RBODYMOD = 1
    RGATEMOD = 1
    PERMOD = 1
    GEOMOD = 1
    RGEOMOD = 0
    FNOIMOD = 1
    TNOIMOD = 0
    IGCMOD = 1
    IGBMOD = 1
    STIMOD = 0
    VERSION =      4 
    TOXREF = 1.14e-09 
    TOXE = 1.14e-09 
    TOXP =  1e-09 
    TOXM = 1.14e-09 
    DTOX = 1.4e-10 
    EPSROX =    3.9 
    CDSC =      0 
    CDSCB =      0 
    CDSCD =      0 
    CIT =      0 
    NFACTOR =    2.1 
    XJ = 1.98e-08 
    VSAT = 1.23e+05 
    A0 =      1 
    AGS =      0 
    A1 =      0 
    A2 =      1 
    AT = 3.3e+04 
    KETA =   0.04 
    NSUB =  6e+16 
    NDEP = 3.4e+18 
    NSD =  2e+20 
    NGATE =  3e+20 
    GAMMA1 =      0 
    GAMMA2 =      0 
    VBX =      0 
    VBM =     -3 
    XT = 1.55e-07 
    K1 =    0.4 
    KT1 =  -0.11 
    KT1L =      0 
    KT2 =  0.022 
    K2 =      0 
    K3 =      0 
    K3B =      0 
    LPE0 =      0 
    LPEB =      0 
    DVTP0 =  1e-10 
    DVTP1 =    0.1 
    W0 = 2.5e-06 
    DVT0 =      1 
    DVT1 =      2 
    DVT2 =      0 
    DVT0W =      0 
    DVT1W =      0 
    DVT2W =      0 
    DROUT =    0.5 
    DSUB =    0.1 
    VTH0 = 0.4106 
    EU =   1.67 
    UA =  6e-10 
    UA1 = 4.31e-09 
    UB = 1.2e-18 
    UB1 = 7.61e-18 
    UC =      0 
    UC1 = -5.6e-11 
    U0 =  0.045 
    UTE =   -1.5 
    VOFF =  -0.13 
    VOFFL =      0 
    MINV =   0.05 
    FPROUT =    0.2 
    PDITS =   0.08 
    PDITSD =   0.23 
    PDITSL = 2.3e+06 
    DELTA =   0.01 
    RDSW =    155 
    RDSWMIN =      0 
    RDWMIN =      0 
    RSWMIN =      0 
    RDW =     80 
    RSW =     80 
    PRWG =      0 
    PRWB =      0 
    PRT =      0 
    ETA0 =  0.006 
    ETAB =      0 
    PCLM =   0.02 
    PDIBLC1 =  0.001 
    PDIBLC2 =  0.001 
    PDIBLCB = -0.005 
    PSCBE1 = 8.14e+08 
    PSCBE2 =  1e-07 
    PVAG =  1e-20 
    WR =      1 
    DWG =      0 
    DWB =      0 
    XW =      0 
    XWREF =      0 
    XL = -2e-08 
    XLREF = -2e-08 
    B0 =      0 
    B1 =      0 
    ALPHA0 =  0.074 
    ALPHA1 =  0.005 
    AGIDL = 0.0002 
    BGIDL = 2.1e+09 
    CGIDL = 0.0002 
    PHIN =      0 
    EGIDL =    0.8 
    AIGC =   0.02 
    BIGC = 0.0027 
    CIGC =  0.002 
    AIGSD =   0.02 
    BIGSD = 0.0027 
    CIGSD =  0.002 
    AIGBACC =  0.012 
    BIGBACC = 0.0028 
    CIGBACC =  0.002 
    AIGBINV =  0.014 
    BIGBINV =  0.004 
    CIGBINV =  0.004 
    NIGC =      1 
    NIGBINV =      3 
    NIGBACC =      1 
    NTOX =      1 
    EIGBINV =    1.1 
    PIGCD =      1 
    POXEDGE =      1 
    XRCRG1 =     12 
    TNOIA =    1.5 
    TNOIB =    3.5 
    NTNOI =      1 
    XRCRG2 =      5 
    BETA0 =     30 
    IJTHDFWD =   0.01 
    IJTHSFWD =   0.01 
    IJTHDREV =  0.001 
    IJTHSREV =  0.001 
    XJBVD =      1 
    XJBVS =      1 
    BVD =     10 
    BVS =     10 
    VFB =  -0.55 
    GBMIN =  1e-10 
    RBDB =     15 
    RBPB =      5 
    RBSB =     15 
    RBPS =     15 
    RBPD =     15 
    CGSL = 2.653e-10 
    CGDL = 2.653e-10 
    CKAPPAS =   0.03 
    CKAPPAD =   0.03 
    CF = 1.289e-10 
    CLC =  1e-07 
    CLE =    0.6 
    DWC =  5e-09 
    DLC = 3.75e-09 
    DLCIG = 3.75e-09 
    DWJ =      0 
    VFBCV =     -1 
    ACDE =      1 
    MOIN =     15 
    NOFF =    0.9 
    VOFFCV =   0.02 
    DMCG =      0 
    DMCI =      0 
    DMDG =      0 
    DMCGT =      0 
    XGW =      0 
    XGL =      0 
    RSHG =    0.4 
    NGCON =      1 
    TCJ =  0.001 
    TPB =  0.005 
    TCJSW =  0.001 
    TPBSW =  0.005 
    TCJSWG =  0.001 
    TPBSWG =  0.005 
    SK0 =      0 
    SK1 =      0 
    SK2 =      0 
    SL =  2e-06 
    SW =  2e-06 
    K =      0 
    TNOM =  300.1 
    CGSO = 1.1e-10 
    CGDO = 1.1e-10 
    CGBO = 2.56e-11 
    XPART =      0 
    RSH =      5 
    JSS = 0.0001 
    JSWS =  1e-11 
    JSWGS =  1e-10 
    PBS =      1 
    MJS =    0.5 
    PBSWS =      1 
    MJSWS =   0.33 
    CJS = 0.0005 
    CJSWS =  5e-10 
    NJS =      1 
    PBSWGS =      1 
    MJSWGS =   0.33 
    CJSWGS =  3e-10 
    XTIS =      3 
    JSD = 0.0001 
    JSWD =  1e-11 
    JSWGD =  1e-10 
    PBD =      1 
    MJD =    0.5 
    PBSWD =      1 
    MJSWD =   0.33 
    CJD = 0.0005 
    CJSWD =  5e-10 
    NJD =      1 
    PBSWGD =      1 
    MJSWGD =   0.33 
    CJSWGD =  5e-10 
    XTID =      3 
    LMLT =      1 
    WMLT =      1 
    LINT = 3.75e-09 
    LL =      0 
    LLC =      0 
    LLN =      1 
    LW =      0 
    LWC =      0 
    LWN =      1 
    LWL =      0 
    LWLC =      0 
    LMIN =      0 
    LMAX =      1 
    WINT =  5e-09 
    WL =      0 
    WLC =      0 
    WLN =      1 
    WW =      0 
    WWC =      0 
    WWN =      1 
    WWL =      0 
    WWLC =      0 
    WMIN =      0 
    WMAX =      1 
    NOIA = 6.25e+41 
    NOIB = 3.125e+26 
    NOIC = 8.75e+09 
    EM = 4.1e+07 
    EF =      1 
    AF =      1 
    KF =      0 
    TRS =      0 
    TRD =      0 
 

 
Model Name: pmos_vtg  

 BSIM4 Model (Level 54)

    MOBMOD = 0
    BINUNIT = 1
    PARAMCHK = 1
    CAPMOD = 2
    DIOMOD = 1
    RDSMOD = 0
    TRNQSMOD = 0
    ACNQSMOD = 0
    RBODYMOD = 1
    RGATEMOD = 1
    PERMOD = 1
    GEOMOD = 1
    RGEOMOD = 0
    FNOIMOD = 1
    TNOIMOD = 0
    IGCMOD = 1
    IGBMOD = 1
    STIMOD = 0
    VERSION =      4 
    TOXREF = 1.3e-09 
    TOXE = 1.26e-09 
    TOXP =  1e-09 
    TOXM = 1.26e-09 
    DTOX = 2.6e-10 
    EPSROX =    3.9 
    CDSC =      0 
    CDSCB =      0 
    CDSCD =      0 
    CIT =      0 
    NFACTOR =   2.22 
    XJ = 1.98e-08 
    VSAT = 6.2e+04 
    A0 =      1 
    AGS =  1e-20 
    A1 =      0 
    A2 =      1 
    AT = 3.3e+04 
    KETA = -0.047 
    NSUB =  6e+16 
    NDEP = 2.44e+18 
    NSD =  2e+20 
    NGATE =  2e+20 
    GAMMA1 =      0 
    GAMMA2 =      0 
    VBX =      0 
    VBM =     -3 
    XT = 1.55e-07 
    K1 =    0.4 
    KT1 =  -0.11 
    KT1L =      0 
    KT2 =  0.022 
    K2 =  -0.01 
    K3 =      0 
    K3B =      0 
    LPE0 =      0 
    LPEB =      0 
    DVTP0 =  1e-11 
    DVTP1 =   0.05 
    W0 = 2.5e-06 
    DVT0 =      1 
    DVT1 =      2 
    DVT2 = -0.032 
    DVT0W =      0 
    DVT1W =      0 
    DVT2W =      0 
    DROUT =   0.56 
    DSUB =    0.1 
    VTH0 = -0.3842 
    EU =      1 
    UA =  2e-09 
    UA1 = 4.31e-09 
    UB =  5e-19 
    UB1 = 7.61e-18 
    UC =      0 
    UC1 = -5.6e-11 
    U0 =   0.02 
    UTE =   -1.5 
    VOFF = -0.126 
    VOFFL =      0 
    MINV =   0.05 
    FPROUT =    0.2 
    PDITS =   0.08 
    PDITSD =   0.23 
    PDITSL = 2.3e+06 
    DELTA =   0.01 
    RDSW =    155 
    RDSWMIN =      0 
    RDWMIN =      0 
    RSWMIN =      0 
    RDW =     75 
    RSW =     75 
    PRWG =      0 
    PRWB =      0 
    PRT =      0 
    ETA0 = 0.0055 
    ETAB =      0 
    PCLM =   0.12 
    PDIBLC1 =  0.001 
    PDIBLC2 =  0.001 
    PDIBLCB = 3.4e-08 
    PSCBE1 = 8.14e+08 
    PSCBE2 = 9.58e-07 
    PVAG =  1e-20 
    WR =      1 
    DWG =      0 
    DWB =      0 
    XW =      0 
    XWREF =      0 
    XL = -2e-08 
    XLREF = -2e-08 
    B0 =      0 
    B1 =      0 
    ALPHA0 =  0.074 
    ALPHA1 =  0.005 
    AGIDL = 0.0002 
    BGIDL = 2.1e+09 
    CGIDL = 0.0002 
    PHIN =      0 
    EGIDL =    0.8 
    AIGC = 0.01069 
    BIGC = 0.001261 
    CIGC = 0.0008 
    AIGSD = 0.01069 
    BIGSD = 0.001261 
    CIGSD = 0.0008 
    AIGBACC =  0.012 
    BIGBACC = 0.0028 
    CIGBACC =  0.002 
    AIGBINV =  0.014 
    BIGBINV =  0.004 
    CIGBINV =  0.004 
    NIGC =      1 
    NIGBINV =      3 
    NIGBACC =      1 
    NTOX =      1 
    EIGBINV =    1.1 
    PIGCD =      1 
    POXEDGE =      1 
    XRCRG1 =     12 
    TNOIA =    1.5 
    TNOIB =    3.5 
    NTNOI =      1 
    XRCRG2 =      5 
    BETA0 =     30 
    IJTHDFWD =   0.01 
    IJTHSFWD =   0.01 
    IJTHDREV =  0.001 
    IJTHSREV =  0.001 
    XJBVD =      1 
    XJBVS =      1 
    BVD =     10 
    BVS =     10 
    VFB =   0.55 
    GBMIN =  1e-10 
    RBDB =     15 
    RBPB =      5 
    RBSB =     15 
    RBPS =     15 
    RBPD =     15 
    CGSL = 2.653e-10 
    CGDL = 2.653e-10 
    CKAPPAS =   0.03 
    CKAPPAD =   0.03 
    CF = 1.267e-10 
    CLC =  1e-07 
    CLE =    0.6 
    DWC =  5e-09 
    DLC = 3.75e-09 
    DLCIG = 3.75e-09 
    DWJ =      0 
    VFBCV =     -1 
    ACDE =      1 
    MOIN =     15 
    NOFF =    0.9 
    VOFFCV =   0.02 
    DMCG =      0 
    DMCI =      0 
    DMDG =      0 
    DMCGT =      0 
    XGW =      0 
    XGL =      0 
    RSHG =    0.4 
    NGCON =      1 
    TCJ =  0.001 
    TPB =  0.005 
    TCJSW =  0.001 
    TPBSW =  0.005 
    TCJSWG =  0.001 
    TPBSWG =  0.005 
    SK0 =      0 
    SK1 =      0 
    SK2 =      0 
    SL =  2e-06 
    SW =  2e-06 
    K =      0 
    TNOM =  300.1 
    CGSO = 1.1e-10 
    CGDO = 1.1e-10 
    CGBO = 2.56e-11 
    XPART =      0 
    RSH =      5 
    JSS = 0.0001 
    JSWS =  1e-11 
    JSWGS =  1e-10 
    PBS =      1 
    MJS =    0.5 
    PBSWS =      1 
    MJSWS =   0.33 
    CJS = 0.0005 
    CJSWS =  5e-10 
    NJS =      1 
    PBSWGS =      1 
    MJSWGS =   0.33 
    CJSWGS =  3e-10 
    XTIS =      3 
    JSD = 0.0001 
    JSWD =  1e-11 
    JSWGD =  1e-10 
    PBD =      1 
    MJD =    0.5 
    PBSWD =      1 
    MJSWD =   0.33 
    CJD = 0.0005 
    CJSWD =  5e-10 
    NJD =      1 
    PBSWGD =      1 
    MJSWGD =   0.33 
    CJSWGD =  5e-10 
    XTID =      3 
    LMLT =      1 
    WMLT =      1 
    LINT = 3.75e-09 
    LL =      0 
    LLC =      0 
    LLN =      1 
    LW =      0 
    LWC =      0 
    LWN =      1 
    LWL =      0 
    LWLC =      0 
    LMIN =      0 
    LMAX =      1 
    WINT =  5e-09 
    WL =      0 
    WLC =      0 
    WLN =      1 
    WW =      0 
    WWC =      0 
    WWN =      1 
    WWL =      0 
    WWLC =      0 
    WMIN =      0 
    WMAX =      1 
    NOIA = 6.188e+40 
    NOIB = 1.5e+25 
    NOIC = 8.75e+09 
    EM = 4.1e+07 
    EF =      1 
    AF =      1 
    KF =      0 
    TRS =      0 
    TRD =      0 
 

  **info** (/home/sjz474/simulation/BIT_SELECT/hspiceD/schematic/netlist/_graphical_stimuli.scs:1) DC voltage reset to initial transient source value              in source        0:vb<0>               new dc=  0.1800D+01
 Warning:  Acde = 1 may be too small in BSIM4 model nmos_vtg with w=1.44e-06 l=5e-08.

 Warning:  Acde = 1 may be too small in BSIM4 model nmos_vtg with w=2.8e-07 l=5e-08.

 Warning:  Acde = 1 may be too small in BSIM4 model nmos_vtg with w=1.63e-06 l=5e-08.

 Warning:  Acde = 1 may be too small in BSIM4 model nmos_vtg with w=1.63e-06 l=5e-08.

 Warning:  Acde = 1 may be too small in BSIM4 model nmos_vtg with w=7.2e-07 l=5e-08.

 Warning:  Acde = 1 may be too small in BSIM4 model nmos_vtg with w=7.2e-07 l=5e-08.

 Warning:  Acde = 1 may be too small in BSIM4 model pmos_vtg with w=1.96e-06 l=5e-08.

 Warning:  Acde = 1 may be too small in BSIM4 model pmos_vtg with w=3e-07 l=5e-08.

 Warning:  Acde = 1 may be too small in BSIM4 model pmos_vtg with w=1.44e-06 l=5e-08.

 Warning:  Acde = 1 may be too small in BSIM4 model pmos_vtg with w=1.44e-06 l=5e-08.

 Warning:  Acde = 1 may be too small in BSIM4 model pmos_vtg with w=1.56e-06 l=5e-08.

 Warning:  Acde = 1 may be too small in BSIM4 model pmos_vtg with w=1.56e-06 l=5e-08.

  **warning** (BIT_SELECT_layout.sp:14) Node name n_xi1/xi3/xi0/net9_xi1/xi3/xi0/mm3_din .IC or .NODESET cannot be found. Nodal initial condition is ignored. Enter a valid node.
 
  **warning** (BIT_SELECT.pex.netlist.pex:11497) Only 1 connection at node s<4> called in element x1.x_pm_bit_select%s<4>.r36.
      
 *****************************************************************
 ******  option summary
 ******
 runlvl  = 3         bypass  = 2         
  Opening plot unit= 15
 file=BIT_SELECT_layout.pa0                                                    


 **info** dc convergence failure, 
 resetting dcon option to 1 and retrying


 **info** although this circuit has failed to converge
 to gmindc=   1.000E-12, it did converge to a gmindc=   4.113E-07

 no convergence with standard algorithm,  trying damped pseudo-transient

 **info** time step too small in pseudo tran. delta=   7.3552E-19
  *** final try failed *** 
  *** gshunt ramping started *** 
  **info** gshunt ramping failed 

 trying gmath ramping method


 **info** no convergence in gmath method gmath=   1.176E-03



 **error** no convergence in operating point





 ***
 *** hspice diagnostic ***
     nonconvergent voltage failures=     0
     nonconvergent element current failures=     1
 ***
1****** HSPICE -- D-2010.03-SP2 32-BIT (Aug 26 2010) linux ******               
 ******  
 .include

  ******  operating point information tnom=  25.000 temp=  25.000 *****
 ***** operating point status is debug     simulation time is     0.     
      node    =voltage        node    =voltage        node    =voltage

 +  0:a<0>    =   1.8000    0:a<1>    =   0.        0:a<2>    =   1.8000 
 +  0:a<3>    =   0.        0:a<4>    =   1.8000    0:a<5>    =   1.8000 
 +  0:a<6>    =   0.        0:a<7>    =   0.        0:b<0>    =   1.8000 
 +  0:b<1>    =   1.8000    0:b<2>    =   0.        0:b<3>    =   1.8000 
 +  0:b<4>    =   0.        0:b<5>    =   1.8000    0:b<6>    =   1.8000 
 +  0:b<7>    =   0.        0:cout    =   9.7410m   0:s<0>    =  25.8353m
 +  0:s<1>    =  21.9294m   0:s<2>    =  19.1862m   0:s<3>    =  21.7176m
 +  0:s<4>    =  21.4303m   0:s<5>    =   1.6933    0:s<6>    =  26.6978m
 +  0:s<7>    =   1.6927    0:vdd!    =   1.8000    1:n_xi3/xi=   6.1012m
 +  1:n_vdd!_x=   1.7073    1:n_xi3/xi=  14.1449m   1:n_xi3/xi=   1.7744 
 +  1:n_gnd!_x=   5.7726m   1:n_s<2>_x=  19.1862m   1:n_xi3/ne=   1.6980 
 +  1:n_xi3/xi=  14.1452m   1:n_xi3/ne=   1.6976    1:n_xi3/xi=  14.1560m
 +  1:n_xi3/xi=   1.7744    1:n_vdd!_x=   1.7044    1:n_s<2>_x=  19.1906m
 +  1:n_xi3/ne=   1.6980    1:n_xi3/xi=   1.7744    1:n_xi3/xi=   1.7744 
 +  1:n_xi3/ne=   1.6976    1:n_xi3/xi=  11.1072m   1:n_a<2>_x=   1.7976 
 +  1:n_gnd!_x=   6.8315m   1:n_xi3/xi=   1.7747    1:n_b<2>_x=  96.0846u
 +  1:n_xi3/xi=  11.1076m   1:n_b<2>_x= 596.8647u   1:n_xi3/xi=  11.1215m
 +  1:n_a<2>_x=   1.7976    1:n_vdd!_x=   1.7044    1:n_xi3/xi=   1.7748 
 +  1:n_b<2>_x=  95.8549u   1:n_a<2>_x=   1.7976    1:n_a<2>_x=   1.7977 
 +  1:n_b<2>_x= 606.5992u   1:n_xi3/xi=   1.7739    1:n_gnd!_x=   5.6469m
 +  1:n_xi3/xi=  13.9906m   1:n_xi3/ne=   1.6977    1:n_xi3/xi=  14.3085m
 +  1:n_xi3/xi=   1.7742    1:n_vdd!_x=   1.7061    1:n_xi3/ne=   1.6979 
 +  1:n_vdd!_x=   1.7064    1:n_xi3/xi=   1.7029    1:n_xi3/xi=  14.1830m
 +  1:n_gnd!_x=   5.2349m   1:n_xi3/xi=   1.7030    1:n_xi3/xi=  14.3997m
 +  1:n_vdd!_x=   1.7068    1:n_a<2>_x=   1.7993    1:n_gnd!_x=   5.2683m
 +  1:n_xi3/xi=   1.6998    1:n_b<2>_x= 220.1526u   1:n_xi3/xi=   1.7002 
 +  1:n_a<2>_x=   1.7996    1:n_vdd!_x=   1.7068    1:n_b<2>_x= 352.4446u
 +  1:n_vdd!_x=   1.7068    1:n_xi3/xi=   7.3660m   1:n_xi3/xi=   1.6997 
 +  1:n_gnd!_x=   5.2320m   1:n_xi3/xi=   7.4056m   1:n_xi3/xi=   1.6998 
 +  1:n_vdd!_x=   1.7070    1:n_xi1/xi=   5.7001m   1:n_xi1/xi=   1.7059 
 +  1:n_gnd!_x=   5.2006m   1:n_xi1/xi=   5.7040m   1:n_xi1/xi=   7.3881m
 +  1:n_xi1/xi=   1.7059    1:n_vdd!_x=   1.7094    1:n_vdd!_x=   1.7098 
 +  1:n_xi1/xi=   5.7077m   1:n_xi1/xi=   7.3881m   1:n_xi1/ne=   1.7047 
 +  1:n_xi1/xi=   5.8393m   1:n_gnd!_x=   5.2133m   1:n_xi1/ne=   1.7048 
 +  1:n_xi1/xi=   6.0726m   1:n_vdd!_x=   1.7096    1:n_xi1/xi=  12.2241m
 +  1:n_xi1/xi=   1.7741    1:n_gnd!_x=   2.0394m   1:n_xi1/ne=  19.0227m
 +  1:n_vdd!_x=   1.7121    1:n_xi1/xi=  12.2244m   1:n_vdd!_x=   1.7116 
 +  1:n_xi1/xi=  12.2354m   1:n_xi1/xi=   1.7741    1:n_vdd!_x=   1.7129 
 +  1:n_xi1/ne=  19.0272m   1:n_vdd!_x=   1.7121    1:n_xi1/xi=   1.7742 
 +  1:n_xi1/xi=   1.7742    1:n_vdd!_x=   1.7117    1:n_xi1/xi=   7.5439m
 +  1:n_a<4>_x=   1.7975    1:n_gnd!_x=   3.1325m   1:n_xi1/xi=   1.7745 
 +  1:n_b<4>_x= 124.2905u   1:n_xi1/xi=   7.5443m   1:n_b<4>_x= 624.9046u
 +  1:n_xi1/xi=   7.5587m   1:n_a<4>_x=   1.7975    1:n_vdd!_x=   1.7129 
 +  1:n_xi1/xi=   1.7745    1:n_b<4>_x= 124.0610u   1:n_a<4>_x=   1.7975 
 +  1:n_a<4>_x=   1.7976    1:n_b<4>_x= 634.6262u   1:n_xi1/xi=   1.7737 
 +  1:n_gnd!_x=   3.2575m   1:n_xi1/xi=  12.1535m   1:n_vdd!_x=   1.7118 
 +  1:n_xi1/xi=  12.4931m   1:n_xi1/xi=   1.7739    1:n_vdd!_x=   1.7116 
 +  1:n_vdd!_x=   1.7119    1:n_vdd!_x=   1.7110    1:n_xi1/xi=   1.7061 
 +  1:n_xi1/xi=  12.3547m   1:n_gnd!_x=   5.0367m   1:n_xi1/xi=   1.7061 
 +  1:n_xi1/xi=  12.5789m   1:n_vdd!_x=   1.7102    1:n_a<4>_x=   1.7992 
 +  1:n_gnd!_x=   4.9331m   1:n_xi1/xi=   1.7027    1:n_b<4>_x= 267.1028u
 +  1:n_xi1/xi=   1.7030    1:n_a<4>_x=   1.7995    1:n_vdd!_x=   1.7102 
 +  1:n_b<4>_x= 402.0229u   1:n_vdd!_x=   1.7099    1:n_xi1/xi=   7.3814m
 +  1:n_xi1/xi=   1.7025    1:n_gnd!_x=   5.1809m   1:n_xi1/xi=   7.4222m
 +  1:n_xi1/xi=   1.7027    1:n_vdd!_x=   1.7098    1:n_xi1/xi=   9.1822m
 +  1:n_xi1/xi=   8.0421m   1:n_gnd!_x=   5.3700m   1:n_xi1/xi=   9.1774m
 +  1:n_xi1/xi=   1.7007    1:n_xi1/xi=   8.1859m   1:n_vdd!_x=   1.7042 
 +  1:n_vdd!_x=   1.7045    1:n_xi1/xi=   9.2585m   1:n_xi1/xi=   1.7007 
 +  1:n_xi1/ne=   1.6995    1:n_xi1/xi=   9.3320m   1:n_gnd!_x=   5.2475m
 +  1:n_xi1/ne=   1.6996    1:n_xi1/xi=   9.5521m   1:n_vdd!_x=   1.7043 
 +  1:n_xi1/xi=   1.7043    1:n_xi1/xi=  32.7751m   1:n_gnd!_x=   5.5899m
 +  1:n_xi1/ne=   1.6994    1:n_xi1/ne=   1.7042    1:n_xi1/xi=   1.7043 
 +  1:n_xi1/ne=   1.7038    1:n_xi1/xi=   1.7043    1:n_xi1/xi=  32.7749m
 +  1:n_vdd!_x=   1.7084    1:n_xi1/ne=   1.6994    1:n_xi1/ne=   1.7042 
 +  1:n_xi1/xi=  32.7539m   1:n_xi1/xi=  32.7703m   1:n_xi1/ne=   1.7038 
 +  1:n_xi1/xi=  22.5796m   1:n_a<5>_x=   1.7999    1:n_gnd!_x=   8.9447m
 +  1:n_xi1/xi=  32.2673m   1:n_b<5>_x=   1.7998    1:n_xi1/xi=  22.5800m
 +  1:n_b<5>_x=   1.7988    1:n_xi1/xi=  22.5927m   1:n_a<5>_x=   1.7999 
 +  1:n_vdd!_x=   1.7084    1:n_xi1/xi=  32.2738m   1:n_b<5>_x=   1.7999 
 +  1:n_a<5>_x=   1.7999    1:n_a<5>_x=   1.7999    1:n_b<5>_x=   1.7988 
 +  1:n_xi1/xi=  32.7194m   1:n_gnd!_x=   5.4496m   1:n_xi1/xi=   1.7058 
 +  1:n_xi1/ne=   1.7042    1:n_xi1/xi=   1.7058    1:n_xi1/xi=  32.8263m
 +  1:n_vdd!_x=   1.7061    1:n_xi1/ne=   1.7042    1:n_vdd!_x=   1.7055 
 +  1:n_xi1/xi=   7.7001m   1:n_xi1/xi=   1.7056    1:n_gnd!_x=   5.2687m
 +  1:n_xi1/xi=   7.7435m   1:n_xi1/xi=   1.7057    1:n_vdd!_x=   1.7048 
 +  1:n_a<5>_x=   1.7993    1:n_gnd!_x=   5.6707m   1:n_xi1/xi=  19.1588m
 +  1:n_b<5>_x=   1.7993    1:n_xi1/xi=  19.6819m   1:n_a<5>_x=   1.7996 
 +  1:n_vdd!_x=   1.7048    1:n_b<5>_x=   1.7995    1:n_vdd!_x=   1.7047 
 +  1:n_xi1/xi=   1.7009    1:n_xi1/xi=  19.3880m   1:n_gnd!_x=   5.2438m
 +  1:n_xi1/xi=   1.7009    1:n_xi1/xi=  19.5941m   1:n_vdd!_x=   1.7045 
 +  1:n_xi1/xi=   1.7035    1:n_xi1/xi=  28.3411m   1:n_gnd!_x=  26.3194m
 +  1:n_gnd!_x=  26.4868m   1:n_xi1/xi=   1.7035    1:n_xi1/xi=  28.6276m
 +  1:n_xi1/xi=  28.4737m   1:n_vdd!_x=   1.7122    1:n_xi1/xi=   1.7037 
 +  1:n_xi1/xi=  28.7565m   1:n_xi1/ne=  28.6461m   1:n_xi1/xi=   1.7034 
 +  1:n_gnd!_x=  26.4675m   1:n_xi1/ne=  28.6789m   1:n_xi1/xi=   1.7035 
 +  1:n_vdd!_x=   1.7128    1:n_xi1/xi=  20.1586m   1:n_xi1/xi=   1.7544 
 +  1:n_gnd!_x=  17.5553m   1:n_xi1/ne=   1.7353    1:n_gnd!_x=  19.4200m
 +  1:n_xi1/xi=  20.1589m   1:n_gnd!_x=  19.6786m   1:n_xi1/xi=  20.1672m
 +  1:n_xi1/xi=   1.7544    1:n_vdd!_x=   1.7213    1:n_xi1/ne=   1.7353 
 +  1:n_gnd!_x=  19.4198m   1:n_xi1/xi=   1.7544    1:n_xi1/xi=   1.7544 
 +  1:n_gnd!_x=  19.6840m   1:n_xi1/xi=  22.2972m   1:n_a<4>_x=   1.7961 
 +  1:n_gnd!_x=  18.4972m   1:n_xi1/xi=   1.7583    1:n_b<4>_x=  95.9033u
 +  1:n_xi1/xi=  22.2975m   1:n_b<4>_x= 589.4439u   1:n_xi1/xi=  22.3099m
 +  1:n_a<4>_x=   1.7961    1:n_vdd!_x=   1.7213    1:n_xi1/xi=   1.7584 
 +  1:n_b<4>_x=  95.6861u   1:n_a<4>_x=   1.7962    1:n_a<4>_x=   1.7963 
 +  1:n_b<4>_x= 599.0084u   1:n_xi1/xi=   1.7558    1:n_gnd!_x=  20.6895m
 +  1:n_xi1/xi=   1.7079    1:n_gnd!_x=  19.5568m   1:n_xi1/xi=   1.7082 
 +  1:n_xi1/xi=   1.7560    1:n_vdd!_x=   1.7148    1:n_gnd!_x=  19.6789m
 +  1:n_vdd!_x=   1.7141    1:n_xi1/xi=  28.0250m   1:n_xi1/xi=   1.7077 
 +  1:n_gnd!_x=  26.0061m   1:n_xi1/xi=  28.0608m   1:n_xi1/xi=   1.7079 
 +  1:n_vdd!_x=   1.7135    1:n_a<4>_x=   1.7994    1:n_gnd!_x=  25.6459m
 +  1:n_xi1/xi=   1.7058    1:n_b<4>_x= 243.6046u   1:n_xi1/xi=   1.7062 
 +  1:n_a<4>_x=   1.7996    1:n_vdd!_x=   1.7135    1:n_b<4>_x= 381.5201u
 +  1:n_vdd!_x=   1.7132    1:n_xi1/xi=  28.3343m   1:n_xi1/xi=   1.7057 
 +  1:n_gnd!_x=  26.3662m   1:n_xi1/xi=  28.3683m   1:n_xi1/xi=   1.7058 
 +  1:n_vdd!_x=   1.7132    1:n_xi1/xi=  29.7057m   1:n_xi1/xi=  28.7392m
 +  1:n_gnd!_x=  26.5987m   1:n_xi1/xi=  29.7018m   1:n_xi1/xi=   1.7020 
 +  1:n_xi1/xi=  28.8651m   1:n_vdd!_x=   1.7047    1:n_vdd!_x=   1.7051 
 +  1:n_xi1/xi=  29.7674m   1:n_xi1/xi=   1.7020    1:n_xi1/ne=   1.7010 
 +  1:n_xi1/xi=  29.8356m   1:n_gnd!_x=  26.5124m   1:n_xi1/ne=   1.7010 
 +  1:n_xi1/xi=  30.0285m   1:n_vdd!_x=   1.7049    1:n_xi1/xi=   1.7026 
 +  1:n_xi1/xi=  47.1501m   1:n_gnd!_x=  26.7371m   1:n_xi1/ne=  30.5131m
 +  1:n_xi1/ne=  28.9227m   1:n_xi1/xi=   1.7026    1:n_xi1/ne=  29.0953m
 +  1:n_xi1/xi=   1.7027    1:n_xi1/xi=  47.1499m   1:n_vdd!_x=   1.7104 
 +  1:n_xi1/ne=  30.5131m   1:n_xi1/ne=  28.9225m   1:n_xi1/xi=  47.1293m
 +  1:n_xi1/xi=  47.1289m   1:n_xi1/ne=  29.0934m   1:n_xi1/xi=  39.8470m
 +  1:n_a<5>_x=   1.7999    1:n_gnd!_x=  29.3277m   1:n_xi1/xi=  47.0149m
 +  1:n_b<5>_x=   1.7999    1:n_xi1/xi=  39.8474m   1:n_b<5>_x=   1.7990 
 +  1:n_xi1/xi=  39.8581m   1:n_a<5>_x=   1.7999    1:n_vdd!_x=   1.7105 
 +  1:n_xi1/xi=  47.0206m   1:n_b<5>_x=   1.7999    1:n_a<5>_x=   1.8000 
 +  1:n_a<5>_x=   1.8000    1:n_b<5>_x=   1.7991    1:n_xi1/xi=  47.2628m
 +  1:n_gnd!_x=  26.6288m   1:n_xi1/xi=   1.7036    1:n_xi1/ne=  29.0965m
 +  1:n_xi1/xi=   1.7039    1:n_xi1/xi=  47.3608m   1:n_vdd!_x=   1.7068 
 +  1:n_xi1/ne=  29.2050m   1:n_vdd!_x=   1.7062    1:n_xi1/xi=  28.4417m
 +  1:n_xi1/xi=   1.7035    1:n_gnd!_x=  26.5316m   1:n_xi1/xi=  28.4756m
 +  1:n_xi1/xi=   1.7036    1:n_vdd!_x=   1.7055    1:n_a<5>_x=   1.7994 
 +  1:n_gnd!_x=  26.8575m   1:n_xi1/xi=  38.1683m   1:n_b<5>_x=   1.7994 
 +  1:n_xi1/xi=  38.6062m   1:n_a<5>_x=   1.7996    1:n_vdd!_x=   1.7055 
 +  1:n_b<5>_x=   1.7996    1:n_vdd!_x=   1.7053    1:n_xi1/xi=   1.7021 
 +  1:n_xi1/xi=  38.3660m   1:n_gnd!_x=  26.5159m   1:n_xi1/xi=   1.7022 
 +  1:n_xi1/xi=  38.5485m   1:n_vdd!_x=   1.7052    1:n_xi1/xi=   5.7270m
 +  1:n_xi1/xi=   1.6971    1:n_gnd!_x=   5.2559m   1:n_xi1/xi=   5.7307m
 +  1:n_xi1/xi=   7.3827m   1:n_xi1/xi=   1.6971    1:n_vdd!_x=   1.7005 
 +  1:n_vdd!_x=   1.7007    1:n_xi1/xi=   5.7341m   1:n_xi1/xi=   7.3827m
 +  1:n_xi1/ne=   1.6964    1:n_xi1/xi=   5.8582m   1:n_gnd!_x=   5.2197m
 +  1:n_xi1/ne=   1.6965    1:n_xi1/xi=   6.0780m   1:n_vdd!_x=   1.7006 
 +  1:n_xi1/xi=  17.1549m   1:n_xi1/xi=   1.7958    1:n_gnd!_x=   5.8179m
 +  1:n_xi1/ne=  24.5432m   1:n_xi1/ne=   1.6989    1:n_xi1/xi=  17.1552m
 +  1:n_xi1/ne=   1.6985    1:n_xi1/xi=  17.1682m   1:n_xi1/xi=   1.7958 
 +  1:n_vdd!_x=   1.7034    1:n_xi1/ne=  24.5484m   1:n_xi1/ne=   1.6989 
 +  1:n_xi1/xi=   1.7959    1:n_xi1/xi=   1.7959    1:n_xi1/ne=   1.6985 
 +  1:n_xi1/xi=   1.6981    1:n_a<6>_x= 728.1368u   1:n_gnd!_x=   5.8204m
 +  1:n_xi1/xi=   1.7963    1:n_b<6>_x=   1.8000    1:n_xi1/xi=   1.6981 
 +  1:n_b<6>_x=   1.7996    1:n_xi1/xi=   1.6981    1:n_a<6>_x= 727.9605u
 +  1:n_vdd!_x=   1.7034    1:n_xi1/xi=   1.7963    1:n_b<6>_x=   1.8000 
 +  1:n_a<6>_x= 706.4032u   1:n_a<6>_x= 729.1989u   1:n_b<6>_x=   1.7996 
 +  1:n_xi1/xi=   1.7953    1:n_gnd!_x=   5.7065m   1:n_xi1/xi=  15.1535m
 +  1:n_xi1/ne=   1.6986    1:n_xi1/xi=  15.5157m   1:n_xi1/xi=   1.7956 
 +  1:n_vdd!_x=   1.7017    1:n_xi1/ne=   1.6987    1:n_vdd!_x=   1.7014 
 +  1:n_xi1/xi=   1.6972    1:n_xi1/xi=  15.3494m   1:n_gnd!_x=   5.2428m
 +  1:n_xi1/xi=   1.6973    1:n_xi1/xi=  15.5561m   1:n_vdd!_x=   1.7009 
 +  1:n_a<6>_x= 245.8470u   1:n_gnd!_x=   5.2819m   1:n_xi1/xi=   1.7006 
 +  1:n_b<6>_x=   1.8000    1:n_xi1/xi=   1.7006    1:n_a<6>_x= 373.9432u
 +  1:n_vdd!_x=   1.7009    1:n_b<6>_x=   1.8000    1:n_vdd!_x=   1.7008 
 +  1:n_xi1/xi=   7.3763m   1:n_xi1/xi=   1.7004    1:n_gnd!_x=   5.2352m
 +  1:n_xi1/xi=   7.4160m   1:n_xi1/xi=   1.7005    1:n_vdd!_x=   1.7007 
 +  1:n_xi1/xi=   1.6894    1:n_xi1/xi=   7.8368m   1:n_gnd!_x=   5.2896m
 +  1:n_xi1/xi=   1.6894    1:n_xi1/xi=   7.7366m   1:n_xi1/xi=   7.9756m
 +  1:n_vdd!_x=   1.6987    1:n_vdd!_x=   1.6989    1:n_xi1/xi=   1.6896 
 +  1:n_xi1/xi=   7.8718m   1:n_xi1/ne=   7.5013m   1:n_xi1/xi=   1.6893 
 +  1:n_gnd!_x=   5.2583m   1:n_xi1/ne=   7.5428m   1:n_xi1/xi=   1.6894 
 +  1:n_vdd!_x=   1.6989    1:n_xi1/xi=   1.6951    1:n_xi1/xi=   3.8824m
 +  1:n_gnd!_x=   5.2480m   1:n_xi1/ne=   1.6942    1:n_xi1/ne=   1.6962 
 +  1:n_xi1/xi=   1.6951    1:n_xi1/ne=   1.6960    1:n_xi1/xi=   1.6951 
 +  1:n_xi1/xi=   3.8823m   1:n_vdd!_x=   1.7001    1:n_xi1/ne=   1.6942 
 +  1:n_xi1/ne=   1.6962    1:n_xi1/xi=   3.8584m   1:n_xi1/xi=   3.8767m
 +  1:n_xi1/ne=   1.6960    1:n_xi1/xi=   1.6901    1:n_a<7>_x=  55.1034u
 +  1:n_gnd!_x=   5.2505m   1:n_xi1/xi=   3.2606m   1:n_b<7>_x=  26.4666u
 +  1:n_xi1/xi=   1.6901    1:n_b<7>_x= 384.5285u   1:n_xi1/xi=   1.6901 
 +  1:n_a<7>_x=  54.9315u   1:n_vdd!_x=   1.7001    1:n_xi1/xi=   3.2606m
 +  1:n_b<7>_x=  26.2947u   1:n_a<7>_x=  28.5293u   1:n_a<7>_x=  27.8916u
 +  1:n_b<7>_x= 380.6727u   1:n_xi1/xi=   3.8011m   1:n_gnd!_x=   5.2478m
 +  1:n_xi1/xi=   1.6991    1:n_xi1/ne=   1.6962    1:n_xi1/xi=   1.6991 
 +  1:n_xi1/xi=   3.9251m   1:n_vdd!_x=   1.6993    1:n_xi1/ne=   1.6962 
 +  1:n_vdd!_x=   1.6992    1:n_xi1/xi=   7.5045m   1:n_xi1/xi=   1.6989 
 +  1:n_gnd!_x=   5.2308m   1:n_xi1/xi=   7.5450m   1:n_xi1/xi=   1.6990 
 +  1:n_vdd!_x=   1.6990    1:n_a<7>_x= 210.1685u   1:n_gnd!_x=   5.2432m
 +  1:n_xi1/xi=   1.6954    1:n_b<7>_x= 237.1737u   1:n_xi1/xi=   1.6957 
 +  1:n_a<7>_x= 337.4189u   1:n_vdd!_x=   1.6989    1:n_b<7>_x= 362.5013u
 +  1:n_vdd!_x=   1.6989    1:n_xi1/xi=   7.4289m   1:n_xi1/xi=   1.6953 
 +  1:n_gnd!_x=   5.2351m   1:n_xi1/xi=   7.4670m   1:n_xi1/xi=   1.6954 
 +  1:n_vdd!_x=   1.6989    1:n_xi1/xi=  26.9229m   1:n_xi1/xi=   1.6980 
 +  1:n_gnd!_x=  26.5120m   1:n_xi1/xi=  26.9261m   1:n_xi1/xi=  28.2195m
 +  1:n_xi1/xi=   1.6980    1:n_vdd!_x=   1.7008    1:n_vdd!_x=   1.7010 
 +  1:n_xi1/xi=  26.9291m   1:n_xi1/xi=  28.2195m   1:n_xi1/ne=   1.6973 
 +  1:n_xi1/xi=  27.0373m   1:n_gnd!_x=  26.4923m   1:n_xi1/ne=   1.6973 
 +  1:n_xi1/xi=  27.2286m   1:n_vdd!_x=   1.7008    1:n_xi1/xi=  35.4127m
 +  1:n_xi1/xi=   1.7962    1:n_gnd!_x=  26.9544m   1:n_xi1/ne=  40.5301m
 +  1:n_xi1/ne=   1.7004    1:n_xi1/xi=  35.4129m   1:n_xi1/ne=   1.7001 
 +  1:n_xi1/xi=  35.4238m   1:n_xi1/xi=   1.7962    1:n_vdd!_x=   1.7038 
 +  1:n_xi1/ne=  40.5346m   1:n_xi1/ne=   1.7004    1:n_xi1/xi=   1.7963 
 +  1:n_xi1/xi=   1.7963    1:n_xi1/ne=   1.7001    1:n_xi1/xi=   1.6985 
 +  1:n_a<6>_x= 698.1387u   1:n_gnd!_x=  26.9558m   1:n_xi1/xi=   1.7967 
 +  1:n_b<6>_x=   1.8000    1:n_xi1/xi=   1.6985    1:n_b<6>_x=   1.7997 
 +  1:n_xi1/xi=   1.6985    1:n_a<6>_x= 697.9621u   1:n_vdd!_x=   1.7038 
 +  1:n_xi1/xi=   1.7967    1:n_b<6>_x=   1.8000    1:n_a<6>_x= 676.3308u
 +  1:n_a<6>_x= 699.1350u   1:n_b<6>_x=   1.7997    1:n_xi1/xi=   1.7958 
 +  1:n_gnd!_x=  26.8717m   1:n_xi1/xi=  34.7326m   1:n_xi1/ne=   1.7001 
 +  1:n_xi1/xi=  35.0332m   1:n_xi1/xi=   1.7961    1:n_vdd!_x=   1.7019 
 +  1:n_xi1/ne=   1.7003    1:n_vdd!_x=   1.7016    1:n_xi1/xi=   1.6981 
 +  1:n_xi1/xi=  34.9013m   1:n_gnd!_x=  26.5160m   1:n_xi1/xi=   1.6982 
 +  1:n_xi1/xi=  35.0830m   1:n_vdd!_x=   1.7011    1:n_a<6>_x= 215.7139u
 +  1:n_gnd!_x=  26.5413m   1:n_xi1/xi=   1.7009    1:n_b<6>_x=   1.8000 
 +  1:n_xi1/xi=   1.7009    1:n_a<6>_x= 344.0305u   1:n_vdd!_x=   1.7012 
 +  1:n_b<6>_x=   1.8000    1:n_vdd!_x=   1.7011    1:n_xi1/xi=  28.2143m
 +  1:n_xi1/xi=   1.7007    1:n_gnd!_x=  26.5103m   1:n_xi1/xi=  28.2459m
 +  1:n_xi1/xi=   1.7008    1:n_vdd!_x=   1.7010    1:n_xi1/xi=   1.6911 
 +  1:n_xi1/xi=  28.6121m   1:n_gnd!_x=  26.5015m   1:n_xi1/xi=   1.6912 
 +  1:n_xi1/xi=  28.5264m   1:n_xi1/xi=  28.7331m   1:n_vdd!_x=   1.6988 
 +  1:n_xi1/xi=   1.6913    1:n_xi1/xi=  28.6447m   1:n_xi1/ne=  28.0405m
 +  1:n_xi1/xi=   1.6910    1:n_gnd!_x=  26.5027m   1:n_xi1/ne=  28.0689m
 +  1:n_xi1/xi=   1.6911    1:n_vdd!_x=   1.6990    1:n_xi1/xi=   1.6953 
 +  1:n_xi1/xi=   3.8823m   1:n_gnd!_x=  26.5022m   1:n_xi1/ne=   1.6933 
 +  1:n_xi1/ne=   1.6970    1:n_xi1/xi=   1.6953    1:n_xi1/ne=   1.6966 
 +  1:n_xi1/xi=   1.6953    1:n_xi1/xi=   3.8821m   1:n_vdd!_x=   1.7002 
 +  1:n_xi1/ne=   1.6933    1:n_xi1/ne=   1.6970    1:n_xi1/xi=   3.8581m
 +  1:n_xi1/xi=   3.8765m   1:n_xi1/ne=   1.6966    1:n_xi1/xi=   1.6902 
 +  1:n_a<7>_x=  49.7830u   1:n_gnd!_x=  26.5035m   1:n_xi1/xi=   3.2561m
 +  1:n_b<7>_x=   6.7993u   1:n_xi1/xi=   1.6902    1:n_b<7>_x= 367.3382u
 +  1:n_xi1/xi=   1.6903    1:n_a<7>_x=  49.6110u   1:n_vdd!_x=   1.7003 
 +  1:n_xi1/xi=   3.2561m   1:n_b<7>_x=   6.6273u   1:n_a<7>_x=  23.1810u
 +  1:n_a<7>_x=  22.5427u   1:n_b<7>_x= 363.4559u   1:n_xi1/xi=   3.7991m
 +  1:n_gnd!_x=  26.5020m   1:n_xi1/xi=   1.6992    1:n_xi1/ne=   1.6970 
 +  1:n_xi1/xi=   1.6992    1:n_xi1/xi=   3.9231m   1:n_vdd!_x=   1.6994 
 +  1:n_xi1/ne=   1.6970    1:n_vdd!_x=   1.6993    1:n_xi1/xi=  28.3238m
 +  1:n_xi1/xi=   1.6990    1:n_gnd!_x=  26.5051m   1:n_xi1/xi=  28.3560m
 +  1:n_xi1/xi=   1.6991    1:n_vdd!_x=   1.6991    1:n_a<7>_x= 204.8918u
 +  1:n_gnd!_x=  26.5020m   1:n_xi1/xi=   1.6955    1:n_b<7>_x= 217.6249u
 +  1:n_xi1/xi=   1.6958    1:n_a<7>_x= 332.2010u   1:n_vdd!_x=   1.6990 
 +  1:n_b<7>_x= 343.0220u   1:n_vdd!_x=   1.6990    1:n_xi1/xi=  28.2573m
 +  1:n_xi1/xi=   1.6954    1:n_gnd!_x=  26.5045m   1:n_xi1/xi=  28.2875m
 +  1:n_xi1/xi=   1.6955    1:n_vdd!_x=   1.6990    1:n_xi1/xi=  15.2778m
 +  1:n_xi1/xi=  15.2800m   1:n_xi1/xi=  15.2803m   1:n_xi1/xi=  15.2804m
 +  1:n_xi1/xi=  15.2804m   1:n_xi1/xi=  15.2804m   1:n_xi1/xi=  15.2410m
 +  1:n_xi1/xi=  15.2411m   1:n_xi1/xi=  15.2411m   1:n_xi1/xi=  15.2752m
 +  1:n_xi1/xi=  15.2797m   1:n_xi1/xi=  15.2804m   1:n_xi1/xi=  15.2804m
 +  1:n_xi1/xi=  15.2804m   1:n_xi1/xi=  15.2411m   1:n_xi1/xi=  15.2773m
 +  1:n_xi1/xi=  15.2800m   1:n_xi1/xi=  15.2804m   1:n_xi1/xi=  15.2804m
 +  1:n_xi1/xi=  15.2804m   1:n_xi1/xi=  15.2413m   1:n_xi1/xi=  15.2436m
 +  1:n_xi1/xi=  15.2414m   1:n_xi1/xi=  15.2415m   1:n_xi1/xi=  15.2414m
 +  1:n_xi1/xi=  15.2416m   1:n_xi1/xi=  15.2801m   1:n_xi1/xi=  15.2801m
 +  1:n_xi1/xi=  15.2414m   1:n_xi1/xi=  15.2440m   1:n_xi1/xi=  15.2801m
 +  1:n_xi1/xi=  14.6621m   1:n_xi1/xi=  14.6644m   1:n_xi1/xi=  14.6647m
 +  1:n_xi1/xi=  14.6648m   1:n_xi1/xi=  14.6648m   1:n_xi1/xi=  14.6648m
 +  1:n_xi1/xi=  14.6248m   1:n_xi1/xi=  14.6248m   1:n_xi1/xi=  14.6248m
 +  1:n_xi1/xi=  14.6595m   1:n_xi1/xi=  14.6641m   1:n_xi1/xi=  14.6648m
 +  1:n_xi1/xi=  14.6648m   1:n_xi1/xi=  14.6648m   1:n_xi1/xi=  14.6248m
 +  1:n_xi1/xi=  14.6616m   1:n_xi1/xi=  14.6644m   1:n_xi1/xi=  14.6648m
 +  1:n_xi1/xi=  14.6648m   1:n_xi1/xi=  14.6648m   1:n_xi1/xi=  14.6251m
 +  1:n_xi1/xi=  14.6273m   1:n_xi1/xi=  14.6251m   1:n_xi1/xi=  14.6252m
 +  1:n_xi1/xi=  14.6251m   1:n_xi1/xi=  14.6253m   1:n_xi1/xi=  14.6652m
 +  1:n_xi1/xi=  14.6654m   1:n_xi1/xi=  14.6251m   1:n_xi1/xi=  14.6278m
 +  1:n_xi1/xi=  14.6820m   1:n_xi1/xi=  13.0448m   1:n_xi1/xi=  13.0471m
 +  1:n_xi1/xi=  13.0474m   1:n_xi1/xi=  13.0475m   1:n_xi1/xi=  13.0475m
 +  1:n_xi1/xi=  13.0475m   1:n_xi1/xi=  13.0075m   1:n_xi1/xi=  13.0075m
 +  1:n_xi1/xi=  13.0075m   1:n_xi1/xi=  13.0422m   1:n_xi1/xi=  13.0468m
 +  1:n_xi1/xi=  13.0474m   1:n_xi1/xi=  13.0475m   1:n_xi1/xi=  13.0475m
 +  1:n_xi1/xi=  13.0075m   1:n_xi1/xi=  13.0443m   1:n_xi1/xi=  13.0470m
 +  1:n_xi1/xi=  13.0475m   1:n_xi1/xi=  13.0475m   1:n_xi1/xi=  13.0475m
 +  1:n_xi1/xi=  13.0078m   1:n_xi1/xi=  13.0100m   1:n_xi1/xi=  13.0078m
 +  1:n_xi1/xi=  13.0079m   1:n_xi1/xi=  13.0078m   1:n_xi1/xi=  13.0078m
 +  1:n_xi1/xi=  13.0472m   1:n_xi1/xi=  13.0472m   1:n_xi1/xi=  13.0078m
 +  1:n_xi1/xi=  15.2410m   1:n_xi1/xi=  13.0105m   1:n_xi1/xi=  13.0472m
 +  1:n_xi1/xi=   8.4319m   1:n_xi1/xi=   8.4344m   1:n_xi1/xi=   8.4347m
 +  1:n_xi1/xi=   8.4348m   1:n_xi1/xi=   8.4348m   1:n_xi1/xi=   8.4348m
 +  1:n_xi1/xi=   8.3922m   1:n_net9_x=   1.7072    1:n_xi1/xi=   8.3922m
 +  1:n_xi1/xi=   8.3922m   1:n_xi1/xi=   8.4292m   1:n_xi1/xi=   8.4341m
 +  1:n_xi1/xi=   8.4348m   1:n_xi1/xi=   8.4348m   1:n_xi1/xi=   8.4348m
 +  1:n_xi1/xi=   8.3922m   1:n_xi1/xi=   8.4314m   1:n_xi1/xi=   8.4344m
 +  1:n_gnd!_x=  13.1176m   1:n_xi1/xi=   8.4348m   1:n_xi1/xi=   8.4348m
 +  1:n_xi1/xi=   8.4348m   1:n_xi1/xi=   8.3925m   1:n_xi1/xi=   8.3949m
 +  1:n_xi1/xi=   8.3926m   1:n_xi1/xi=   8.3927m   1:n_xi1/xi=   8.3926m
 +  1:n_xi1/xi=   8.3930m   1:n_xi1/xi=   8.4352m   1:n_gnd!_x=  13.1246m
 +  1:n_xi1/xi=   8.4354m   1:n_xi1/xi=   8.3926m   1:n_xi1/xi=   8.3954m
 +  1:n_xi1/xi=   8.4521m   1:n_xi1/xi=   8.3572m   1:n_xi1/xi=   8.3596m
 +  1:n_xi1/xi=   8.3600m   1:n_xi1/xi=   8.3600m   1:n_xi1/xi=   8.3600m
 +  1:n_xi1/xi=   8.3600m   1:n_xi1/xi=   8.3180m   1:n_xi1/xi=   8.3180m
 +  1:n_xi1/xi=   8.3180m   1:n_xi1/xi=   8.3545m   1:n_xi1/xi=   8.3593m
 +  1:n_xi1/xi=   8.3600m   1:n_xi1/xi=   8.3600m   1:n_xi1/xi=   8.3600m
 +  1:n_xi1/xi=   8.3567m   1:n_xi1/xi=  15.2804m   1:n_xi1/xi=   8.3596m
 +  1:n_xi1/xi=   8.3600m   1:n_xi1/xi=   8.3183m   1:n_xi1/xi=   8.3207m
 +  1:n_xi1/xi=   8.3184m   1:n_xi1/xi=   8.3185m   1:n_xi1/xi=   8.3184m
 +  1:n_xi1/xi=   8.3184m   1:n_xi1/xi=   8.3598m   1:n_xi1/xi=   8.3598m
 +  1:n_net9_x=   1.7073    1:n_xi1/xi=   8.3184m   1:n_xi1/xi=   8.3212m
 +  1:n_xi1/xi=   8.3598m   1:n_xi3/xi=  18.0549m   1:n_xi3/xi=  18.0550m
 +  1:n_xi3/xi=  18.0552m   1:n_xi3/xi=  18.0549m   1:n_xi3/xi=  15.6900m
 +  1:n_vdd!_x=   1.7132    1:n_xi3/xi=  15.6900m   1:n_xi3/xi=  15.6902m
 +  1:n_xi3/xi=  15.6900m   1:n_xi3/xi=   1.7033    1:n_xi3/xi=   1.7033 
 +  1:n_xi3/xi=   1.7033    1:n_xi3/xi=   1.7033    1:n_xi3/xi=  15.8737m
 +  1:n_vdd!_x=   1.7133    1:n_xi3/xi=  15.8737m   1:n_xi3/xi=  15.8739m
 +  1:n_xi3/xi=  15.8737m   1:n_xi3/xi=   1.6969    1:n_xi3/xi=   1.6969 
 +  1:n_xi3/xi=   1.6969    1:n_xi3/xi=   1.6969    1:n_xi3/xi=  14.1449m
 +  1:n_xi1/ne=   1.7328    1:n_xi3/xi=  14.1449m   1:n_xi3/xi=  14.1451m
 +  1:n_xi3/xi=  14.1449m   1:n_xi3/xi=  11.1072m   1:n_xi3/xi=  11.1073m
 +  1:n_xi3/xi=  11.1075m   1:n_xi3/xi=  11.1072m   1:n_xi1/xi=  12.2241m
 +  1:n_xi1/xi=  15.2417m   1:n_xi1/xi=  12.2241m   1:n_xi1/xi=  12.2243m
 +  1:n_xi1/xi=  12.2241m   1:n_xi1/xi=   7.5439m   1:n_xi1/xi=   7.5440m
 +  1:n_xi1/xi=   7.5442m   1:n_xi1/xi=   7.5439m   1:n_xi1/xi=   1.7043 
 +  1:n_s<4>_x=  21.4303m   1:n_xi1/xi=   1.7043    1:n_xi1/xi=   1.7043 
 +  1:n_xi1/xi=   1.7043    1:n_xi1/xi=  22.5796m   1:n_xi1/xi=  22.5796m
 +  1:n_xi1/xi=  22.5799m   1:n_xi1/xi=  22.5796m   1:n_xi1/xi=  20.1586m
 +  1:n_xi1/ne=  19.8021m   1:n_xi1/xi=  20.1586m   1:n_xi1/xi=  20.1588m
 +  1:n_xi1/xi=  22.2972m   1:n_xi1/xi=  22.2972m   1:n_xi1/xi=  22.2974m
 +  1:n_xi1/xi=   1.7026    1:n_xi1/xi=   1.7026    1:n_xi1/xi=   1.7026 
 +  1:n_net9_x=   1.7074    1:n_xi1/xi=   1.7026    1:n_xi1/xi=  39.8470m
 +  1:n_xi1/xi=  39.8470m   1:n_xi1/xi=  39.8473m   1:n_xi1/xi=  17.1549m
 +  1:n_xi1/xi=  17.1549m   1:n_xi1/xi=  17.1551m   1:n_xi1/xi=  17.1549m
 +  1:n_xi1/ne=   1.7329    1:n_xi1/xi=   1.6981    1:n_xi1/xi=   1.6981 
 +  1:n_xi1/xi=   1.6981    1:n_xi1/xi=   1.6981    1:n_xi1/xi=   1.6951 
 +  1:n_xi1/xi=   1.6951    1:n_xi1/xi=   1.6951    1:n_xi1/xi=   1.6951 
 +  1:n_net9_x=   1.7075    1:n_xi1/xi=   1.6901    1:n_xi1/xi=   1.6901 
 +  1:n_xi1/xi=   1.6901    1:n_xi1/xi=   1.6901    1:n_xi1/xi=  35.4127m
 +  1:n_xi1/xi=  35.4127m   1:n_xi1/xi=  35.4128m   1:n_xi1/xi=  35.4127m
 +  1:n_s<4>_x=  21.4340m   1:n_xi1/xi=   1.6985    1:n_xi1/xi=   1.6985 
 +  1:n_xi1/xi=   1.6985    1:n_xi1/xi=   1.6953    1:n_xi1/xi=   1.6953 
 +  1:n_xi1/xi=   1.6953    1:n_xi1/xi=   1.6953    1:n_xi1/ne=  19.8021m
 +  1:n_xi1/xi=   1.6902    1:n_xi1/xi=   1.6902    1:n_xi1/xi=   1.6902 
 +  1:n_xi3/xi=  19.6961m   1:n_xi3/xi=  19.6903m   1:n_xi3/xi=  19.6903m
 +  1:n_xi3/xi=  19.7726m   1:n_xi3/xi=  19.8321m   1:n_xi3/xi=  19.6544m
 +  1:n_xi1/xi=  15.2801m   1:n_xi3/xi=  19.5794m   1:n_xi3/xi=  19.7630m
 +  1:n_xi3/xi=  19.5763m   1:n_xi3/xi=  19.6812m   1:n_xi3/xi=  15.3404m
 +  1:n_xi3/xi=  15.3339m   1:n_xi3/xi=  15.3339m   1:n_xi3/xi=  15.3450m
 +  1:n_xi3/xi=  15.3867m   1:n_s<4>_x=  21.4315m   1:n_xi3/xi=  15.2623m
 +  1:n_xi3/xi=  15.2111m   1:n_xi3/xi=  15.3383m   1:n_xi3/xi=  15.2077m
 +  1:n_xi3/xi=  15.2811m   1:n_xi3/xi=   1.7126    1:n_xi3/xi=   1.7126 
 +  1:n_xi3/xi=   1.7126    1:n_xi3/xi=   1.7127    1:n_xi3/xi=   1.7127 
 +  1:n_xi3/xi=   1.7127    1:n_xi3/xi=   1.7127    1:n_xi3/xi=   1.7127 
 +  1:n_xi3/xi=   1.7127    1:n_xi3/xi=   1.7127    1:n_xi3/xi=  15.3268m
 +  1:n_xi3/xi=  15.3207m   1:n_xi3/xi=  15.3208m   1:n_xi1/xi=  14.6248m
 +  1:n_xi3/xi=  15.3374m   1:n_xi3/xi=  15.3784m   1:n_xi3/xi=  15.2561m
 +  1:n_xi3/xi=  15.2055m   1:n_xi3/xi=  15.3308m   1:n_xi3/xi=  15.2024m
 +  1:n_xi3/xi=  15.2746m   1:n_xi3/xi=   1.7028    1:n_xi3/xi=   1.7028 
 +  1:n_net9_x=   1.7071    1:n_xi3/xi=   1.7028    1:n_xi3/xi=   1.7029 
 +  1:n_xi3/xi=   1.7029    1:n_xi3/xi=   1.7029    1:n_xi3/xi=   1.7029 
 +  1:n_xi3/xi=   1.7029    1:n_xi3/xi=   1.7029    1:n_xi3/xi=   1.7029 
 +  1:n_xi3/xi=  14.1879m   1:n_gnd!_x=  12.4659m   1:n_xi3/xi=  14.1816m
 +  1:n_xi3/xi=  14.1816m   1:n_xi3/xi=  14.1784m   1:n_xi3/xi=  14.2145m
 +  1:n_xi3/xi=  14.1068m   1:n_xi3/xi=  14.0627m   1:n_xi3/xi=  14.1726m
 +  1:n_xi3/xi=  14.0595m   1:n_xi3/xi=  14.1230m   1:n_gnd!_x=  12.4698m
 +  1:n_xi3/xi=   1.6998    1:n_xi3/xi=   1.6998    1:n_xi3/xi=   1.6998 
 +  1:n_xi3/xi=   1.7000    1:n_xi3/xi=   1.7001    1:n_xi3/xi=   1.7000 
 +  1:n_xi3/xi=   1.6999    1:n_xi3/xi=   1.7000    1:n_xi3/xi=   1.6999 
 +  1:n_xi3/xi=   1.7000    1:n_xi1/xi=  12.3597m   1:n_xi1/xi=  12.3532m
 +  1:n_xi1/xi=  12.3533m   1:n_xi1/xi=  12.3540m   1:n_xi1/xi=  12.3926m
 +  1:n_xi1/xi=  12.2775m   1:n_xi1/xi=  12.2303m   1:n_xi1/xi=  12.3478m
 +  1:n_xi1/xi=  12.2270m   1:n_xi1/xi=  14.6648m   1:n_xi1/xi=  12.2949m
 +  1:n_xi1/xi=   1.7027    1:n_xi1/xi=   1.7027    1:n_xi1/xi=   1.7027 
 +  1:n_xi1/xi=   1.7029    1:n_xi1/xi=   1.7029    1:n_xi1/xi=   1.7028 
 +  1:n_xi1/xi=   1.7028    1:n_xi1/xi=   1.7029    1:n_net9_x=   1.7072 
 +  1:n_xi1/xi=   1.7028    1:n_xi1/xi=   1.7028    1:n_xi1/xi=   1.7057 
 +  1:n_xi1/xi=   1.7057    1:n_xi1/xi=   1.7057    1:n_xi1/xi=   1.7058 
 +  1:n_xi1/xi=   1.7058    1:n_xi1/xi=   1.7058    1:n_xi1/xi=   1.7058 
 +  1:n_vdd!_x=   1.7072    1:n_xi1/xi=   1.7058    1:n_xi1/xi=   1.7058 
 +  1:n_xi1/xi=   1.7058    1:n_xi1/xi=  19.3925m   1:n_xi1/xi=  19.3866m
 +  1:n_xi1/xi=  19.3866m   1:n_xi1/xi=  19.4669m   1:n_xi1/xi=  19.5265m
 +  1:n_xi1/xi=  19.3485m   1:n_vdd!_x=   1.7072    1:n_xi1/xi=  19.2734m
 +  1:n_xi1/xi=  19.4572m   1:n_xi1/xi=  19.2704m   1:n_xi1/xi=  19.3754m
 +  1:n_xi1/xi=   1.7079    1:n_xi1/xi=   1.7079    1:n_xi1/xi=   1.7079 
 +  1:n_xi1/xi=   1.7081    1:n_xi1/xi=   1.7081    1:n_xi1/ne=  31.1697m
 +  1:n_xi1/xi=   1.7080    1:n_xi1/xi=   1.7079    1:n_xi1/xi=   1.7080 
 +  1:n_xi1/xi=   1.7079    1:n_xi1/xi=   1.7080    1:n_xi1/xi=   1.7058 
 +  1:n_xi1/xi=   1.7058    1:n_xi1/xi=   1.7058    1:n_xi1/xi=   1.7060 
 +  1:n_xi1/xi=  14.6254m   1:n_xi1/xi=   1.7060    1:n_xi1/xi=   1.7059 
 +  1:n_xi1/xi=   1.7059    1:n_xi1/xi=   1.7060    1:n_xi1/xi=   1.7059 
 +  1:n_xi1/xi=   1.7059    1:n_xi1/xi=   1.7036    1:n_xi1/xi=   1.7036 
 +  1:n_xi1/xi=   1.7036    1:n_s<5>_x=   1.6933    1:n_xi1/xi=   1.7038 
 +  1:n_xi1/xi=   1.7038    1:n_xi1/xi=   1.7037    1:n_xi1/xi=   1.7037 
 +  1:n_xi1/xi=   1.7038    1:n_xi1/xi=   1.7037    1:n_xi1/xi=   1.7037 
 +  1:n_xi1/xi=  38.3700m   1:n_xi1/xi=  38.3647m   1:n_xi1/ne=   1.6977 
 +  1:n_xi1/xi=  38.3648m   1:n_xi1/xi=  38.4262m   1:n_xi1/xi=  38.4761m
 +  1:n_xi1/xi=  38.3272m   1:n_xi1/xi=  38.2645m   1:n_xi1/xi=  38.4182m
 +  1:n_xi1/xi=  38.2618m   1:n_xi1/xi=  38.3497m   1:n_xi1/xi=  15.3540m
 +  1:n_net9_x=   1.7074    1:n_xi1/xi=  15.3480m   1:n_xi1/xi=  15.3480m
 +  1:n_xi1/xi=  15.3672m   1:n_xi1/xi=  15.4084m   1:n_xi1/xi=  15.2855m
 +  1:n_xi1/xi=  15.2346m   1:n_xi1/xi=  15.3605m   1:n_xi1/xi=  15.2315m
 +  1:n_xi1/xi=  15.3040m   1:n_xi1/ne=  31.1697m   1:n_xi1/xi=   1.7005 
 +  1:n_xi1/xi=   1.7005    1:n_xi1/xi=   1.7005    1:n_xi1/xi=   1.7006 
 +  1:n_xi1/xi=   1.7006    1:n_xi1/xi=   1.7006    1:n_xi1/xi=   1.7006 
 +  1:n_xi1/xi=   1.7006    1:n_xi1/xi=   1.7006    1:n_xi1/xi=   1.7006 
 +  1:n_net9_x=   1.7074    1:n_xi1/xi=   1.6990    1:n_xi1/xi=   1.6990 
 +  1:n_xi1/xi=   1.6990    1:n_xi1/xi=   1.6991    1:n_xi1/xi=   1.6991 
 +  1:n_xi1/xi=   1.6991    1:n_xi1/xi=   1.6991    1:n_xi1/xi=   1.6991 
 +  1:n_xi1/xi=   1.6991    1:n_s<5>_x=   1.6933    1:n_xi1/xi=   1.6991 
 +  1:n_xi1/xi=   1.6954    1:n_xi1/xi=   1.6954    1:n_xi1/xi=   1.6954 
 +  1:n_xi1/xi=   1.6956    1:n_xi1/xi=   1.6956    1:n_xi1/xi=   1.6955 
 +  1:n_xi1/xi=   1.6955    1:n_xi1/xi=   1.6956    1:n_xi1/ne=   1.6977 
 +  1:n_xi1/xi=   1.6955    1:n_xi1/xi=   1.6956    1:n_xi1/xi=  34.9052m
 +  1:n_xi1/xi=  34.9000m   1:n_xi1/xi=  34.9000m   1:n_xi1/xi=  34.9100m
 +  1:n_xi1/xi=  34.9442m   1:n_xi1/xi=  34.8422m   1:n_xi1/xi=  34.8001m
 +  1:n_xi1/xi=  14.6888m   1:n_xi1/xi=  34.9045m   1:n_xi1/xi=  34.7974m
 +  1:n_xi1/xi=  34.8576m   1:n_xi1/xi=   1.7008    1:n_xi1/xi=   1.7008 
 +  1:n_xi1/xi=   1.7008    1:n_xi1/xi=   1.7009    1:n_xi1/xi=   1.7009 
 +  1:n_xi1/xi=   1.7009    1:n_s<5>_x=   1.6933    1:n_xi1/xi=   1.7009 
 +  1:n_xi1/xi=   1.7009    1:n_xi1/xi=   1.7009    1:n_xi1/xi=   1.7009 
 +  1:n_xi1/xi=   1.6991    1:n_xi1/xi=   1.6991    1:n_xi1/xi=   1.6991 
 +  1:n_xi1/xi=   1.6992    1:n_xi1/xi=   1.6992    1:n_xi1/xi=   1.6992 
 +  1:n_xi1/xi=   1.6992    1:n_xi1/xi=   1.6992    1:n_xi1/xi=   1.6992 
 +  1:n_xi1/xi=   1.6992    1:n_xi1/xi=   1.6955    1:n_xi1/xi=   1.6955 
 +  1:n_xi1/xi=   1.6955    1:n_xi1/xi=   1.6957    1:n_xi1/xi=  13.0075m
 +  1:n_xi1/xi=   1.6957    1:n_xi1/xi=   1.6956    1:n_xi1/xi=   1.6956 
 +  1:n_xi1/xi=   1.6957    1:n_xi1/xi=   1.6956    1:n_xi1/xi=   1.6956 
 +  1:n_xi3/xi=   1.7960    1:n_xi3/xi=   1.7960    1:n_xi3/xi=   1.7960 
 +  1:n_net9_x=   1.7070    1:n_xi3/xi=   1.7960    1:n_xi3/xi=   1.7957 
 +  1:n_xi3/xi=   1.7960    1:n_xi3/xi=   1.7960    1:n_xi3/xi=   1.7960 
 +  1:n_xi3/xi=   1.7960    1:n_xi3/xi=   1.7961    1:n_xi3/xi=   1.7961 
 +  1:n_xi3/xi=   1.7964    1:n_xi3/xi=   1.7961    1:n_gnd!_x=  10.8487m
 +  1:n_xi3/xi=   1.7961    1:n_xi3/xi=   1.7961    1:n_xi3/xi=   1.7959 
 +  1:n_xi3/xi=   1.7089    1:n_xi3/xi=   1.7089    1:n_xi3/xi=   1.7089 
 +  1:n_xi3/xi=   1.7089    1:n_xi3/xi=   1.7089    1:n_xi3/xi=   1.7089 
 +  1:n_gnd!_x=  10.8471m   1:n_xi3/xi=   1.7089    1:n_xi3/xi=   1.7089 
 +  1:n_xi3/xi=   1.7089    1:n_xi3/xi=   1.7089    1:n_xi3/xi=   1.7089 
 +  1:n_xi3/xi=   1.7089    1:n_xi3/xi=   1.7089    1:n_xi3/xi=   1.7089 
 +  1:n_xi3/xi=   1.7089    1:n_xi3/xi=   1.7089    1:n_xi3/xi=   1.7089 
 +  1:n_xi3/xi=   1.7089    1:n_xi3/xi=   1.7089    1:n_xi3/xi=   1.7088 
 +  1:n_xi3/xi=   1.7088    1:n_xi3/xi=   1.7089    1:n_xi3/xi=   1.7088 
 +  1:n_xi3/xi=   1.7087    1:n_xi3/xi=   1.7088    1:n_xi3/xi=   1.7087 
 +  1:n_xi1/xi=  13.0475m   1:n_xi3/xi=   7.5394m   1:n_xi3/xi=   7.5420m
 +  1:n_xi3/xi=   7.5424m   1:n_xi3/xi=   7.5424m   1:n_xi3/xi=   7.5424m
 +  1:n_xi3/xi=   7.5424m   1:n_xi3/xi=   7.4973m   1:n_xi3/xi=   7.4973m
 +  1:n_xi3/xi=   7.4973m   1:n_net9_x=   1.7072    1:n_xi3/xi=   7.5424m
 +  1:n_xi3/xi=   7.5424m   1:n_xi3/xi=   7.5424m   1:n_xi3/xi=   7.4973m
 +  1:n_xi3/xi=   7.5389m   1:n_xi3/xi=   7.5424m   1:n_xi3/xi=   7.4976m
 +  1:n_xi3/xi=   7.5423m   1:n_xi3/xi=   7.4976m   1:n_xi3/xi=   7.5416m
 +  1:n_vdd!_x=   1.7024    1:n_xi3/xi=   7.5001m   1:n_xi3/xi=   7.5007m
 +  1:n_xi3/xi=   7.5046m   1:n_xi3/xi=   7.5046m   1:n_xi3/xi=   7.5046m
 +  1:n_xi3/xi=   7.5046m   1:n_xi3/xi=   7.5046m   1:n_xi3/xi=   7.5046m
 +  1:n_xi3/xi=   7.5046m   1:n_vdd!_x=   1.7024    1:n_xi3/xi=   4.1350m
 +  1:n_xi3/xi=   4.1280m   1:n_xi3/xi=   4.1280m   1:n_xi3/xi=   3.9885m
 +  1:n_xi3/xi=   3.9920m   1:n_xi3/xi=   3.9924m   1:n_xi3/xi=   3.9950m
 +  1:n_xi3/xi=   3.9856m   1:n_xi3/xi=   3.9894m   1:n_xi3/xi=   3.9924m
 +  1:n_xi1/ne=  40.5309m   1:n_xi3/xi=   3.9923m   1:n_xi3/xi=   1.7958 
 +  1:n_xi3/xi=   1.7958    1:n_xi3/xi=   1.7958    1:n_xi3/xi=   1.7958 
 +  1:n_xi3/xi=   1.7956    1:n_xi3/xi=   1.7958    1:n_xi3/xi=   1.7958 
 +  1:n_xi3/xi=   1.7958    1:n_xi1/xi=  13.0078m   1:n_xi3/xi=   1.7958 
 +  1:n_xi3/xi=   1.7959    1:n_xi3/xi=   1.7959    1:n_xi3/xi=   1.7963 
 +  1:n_xi3/xi=   1.7959    1:n_xi3/xi=   1.7959    1:n_xi3/xi=   1.7959 
 +  1:n_xi3/xi=   1.7957    1:n_xi3/xi=   1.6995    1:n_s<6>_x=  26.6978m
 +  1:n_xi3/xi=   1.6995    1:n_xi3/xi=   1.6995    1:n_xi3/xi=   1.6995 
 +  1:n_xi3/xi=   1.6995    1:n_xi3/xi=   1.6995    1:n_xi3/xi=   1.6995 
 +  1:n_xi3/xi=   1.6995    1:n_xi3/xi=   1.6995    1:n_xi3/xi=   1.6995 
 +  1:n_xi3/xi=   1.6995    1:n_xi1/ne=  25.2402m   1:n_xi3/xi=   1.6995 
 +  1:n_xi3/xi=   1.6995    1:n_xi3/xi=   1.6995    1:n_xi3/xi=   1.6995 
 +  1:n_xi3/xi=   1.6995    1:n_xi3/xi=   1.6995    1:n_xi3/xi=   1.6995 
 +  1:n_xi3/xi=   1.6995    1:n_xi3/xi=   1.6995    1:n_xi3/xi=   1.6995 
 +  1:n_net9_x=   1.7073    1:n_xi3/xi=   1.6995    1:n_xi3/xi=   1.6995 
 +  1:n_xi3/xi=   1.6994    1:n_xi3/xi=   1.6994    1:n_xi3/xi=   1.6994 
 +  1:n_xi3/xi=   7.4698m   1:n_xi3/xi=   7.4721m   1:n_xi3/xi=   7.4724m
 +  1:n_xi3/xi=   7.4725m   1:n_xi1/ne=  40.5309m   1:n_xi3/xi=   7.4725m
 +  1:n_xi3/xi=   7.4725m   1:n_xi3/xi=   7.4318m   1:n_xi3/xi=   7.4318m
 +  1:n_xi3/xi=   7.4318m   1:n_xi3/xi=   7.4725m   1:n_xi3/xi=   7.4725m
 +  1:n_xi3/xi=   7.4725m   1:n_xi3/xi=   7.4318m   1:n_xi3/xi=   7.4693m
 +  1:n_net9_x=   1.7074    1:n_xi3/xi=   7.4725m   1:n_xi3/xi=   7.4321m
 +  1:n_xi3/xi=   7.4724m   1:n_xi3/xi=   7.4321m   1:n_xi3/xi=   7.4718m
 +  1:n_xi3/xi=   7.4344m   1:n_xi3/xi=   7.4349m   1:n_xi3/xi=   7.4384m
 +  1:n_xi3/xi=   7.4384m   1:n_xi3/xi=   7.4384m   1:n_s<6>_x=  26.7011m
 +  1:n_xi3/xi=   7.4384m   1:n_xi3/xi=   7.4384m   1:n_xi3/xi=   7.4384m
 +  1:n_xi3/xi=   7.4384m   1:n_xi3/xi=   5.8804m   1:n_xi3/xi=   5.8739m
 +  1:n_xi3/xi=   5.8739m   1:n_xi3/xi=   5.7451m   1:n_xi3/xi=   5.7483m
 +  1:n_xi1/ne=  25.2402m   1:n_xi3/xi=   5.7487m   1:n_xi3/xi=   5.7511m
 +  1:n_xi3/xi=   5.7424m   1:n_xi3/xi=   5.7460m   1:n_xi3/xi=   5.7487m
 +  1:n_xi3/xi=   5.7486m   1:n_xi3/xi=   1.7744    1:n_xi3/xi=   1.7744 
 +  1:n_xi3/xi=   1.7744    1:n_xi1/xi=  13.0472m   1:n_xi3/xi=   1.7744 
 +  1:n_xi3/xi=   1.7742    1:n_xi3/xi=   1.7744    1:n_xi3/xi=   1.7744 
 +  1:n_xi3/xi=   1.7744    1:n_xi3/xi=   1.7744    1:n_xi3/xi=   1.7745 
 +  1:n_xi3/xi=   1.7745    1:n_xi3/xi=   1.7747    1:n_xi3/xi=   1.7745 
 +  1:n_s<6>_x=  26.6988m   1:n_xi3/xi=   1.7745    1:n_xi3/xi=   1.7745 
 +  1:n_xi3/xi=   1.7743    1:n_xi3/xi=   1.7030    1:n_xi3/xi=   1.7030 
 +  1:n_xi3/xi=   1.7030    1:n_xi3/xi=   1.7030    1:n_xi3/xi=   1.7030 
 +  1:n_xi3/xi=   1.7030    1:n_xi3/xi=   1.7029    1:n_xi3/xi=   1.7029 
 +  1:n_xi3/xi=   1.7029    1:n_xi3/xi=   1.7030    1:n_xi3/xi=   1.7030 
 +  1:n_xi3/xi=   1.7030    1:n_xi3/xi=   1.7030    1:n_xi3/xi=   1.7030 
 +  1:n_xi3/xi=   1.7029    1:n_xi3/xi=   1.7030    1:n_xi1/xi=   8.3922m
 +  1:n_xi3/xi=   1.7029    1:n_xi3/xi=   1.7030    1:n_xi3/xi=   1.7029 
 +  1:n_xi3/xi=   1.7029    1:n_xi3/xi=   1.7029    1:n_xi3/xi=   1.7029 
 +  1:n_xi3/xi=   1.7029    1:n_xi3/xi=   1.7028    1:n_xi3/xi=   1.7028 
 +  1:n_xi3/xi=   1.7028    1:n_net9_x=   1.7070    1:n_xi3/xi=   7.4030m
 +  1:n_xi3/xi=   7.4052m   1:n_xi3/xi=   7.4055m   1:n_xi3/xi=   7.4056m
 +  1:n_xi3/xi=   7.4056m   1:n_xi3/xi=   7.4056m   1:n_xi3/xi=   7.3661m
 +  1:n_xi3/xi=   7.3661m   1:n_xi3/xi=   7.3661m   1:n_gnd!_x=   6.0949m
 +  1:n_xi3/xi=   7.4056m   1:n_xi3/xi=   7.4056m   1:n_xi3/xi=   7.4056m
 +  1:n_xi3/xi=   7.3661m   1:n_xi3/xi=   7.4025m   1:n_xi3/xi=   7.4056m
 +  1:n_xi3/xi=   7.3663m   1:n_xi3/xi=   7.4055m   1:n_xi3/xi=   7.3664m
 +  1:n_xi3/xi=   7.4049m   1:n_gnd!_x=   6.0744m   1:n_xi3/xi=   7.3686m
 +  1:n_xi3/xi=   7.3691m   1:n_xi3/xi=   7.3725m   1:n_xi3/xi=   7.3725m
 +  1:n_xi3/xi=   7.3725m   1:n_xi3/xi=   7.3725m   1:n_xi3/xi=   7.3725m
 +  1:n_xi3/xi=   7.3725m   1:n_xi3/xi=   7.3725m   1:n_xi3/xi=   5.8767m
 +  1:n_xi3/xi=   5.8701m   1:n_xi3/xi=   5.8701m   1:n_xi3/xi=   5.7380m
 +  1:n_xi3/xi=   5.7413m   1:n_xi3/xi=   5.7417m   1:n_xi3/xi=   5.7442m
 +  1:n_xi3/xi=   5.7353m   1:n_xi3/xi=   5.7389m   1:n_xi3/xi=   5.7417m
 +  1:n_xi1/xi=   8.4348m   1:n_xi3/xi=   5.7416m   1:n_xi1/xi=   1.7742 
 +  1:n_xi1/xi=   1.7742    1:n_xi1/xi=   1.7742    1:n_xi1/xi=   1.7741 
 +  1:n_xi1/xi=   1.7739    1:n_xi1/xi=   1.7742    1:n_xi1/xi=   1.7742 
 +  1:n_xi1/xi=   1.7742    1:n_net9_x=   1.7071    1:n_xi1/xi=   1.7742 
 +  1:n_xi1/xi=   1.7742    1:n_xi1/xi=   1.7742    1:n_xi1/xi=   1.7745 
 +  1:n_xi1/xi=   1.7742    1:n_xi1/xi=   1.7742    1:n_xi1/xi=   1.7742 
 +  1:n_xi1/xi=   1.7741    1:n_xi1/xi=   1.7061    1:n_vdd!_x=   1.6996 
 +  1:n_xi1/xi=   1.7061    1:n_xi1/xi=   1.7061    1:n_xi1/xi=   1.7061 
 +  1:n_xi1/xi=   1.7061    1:n_xi1/xi=   1.7061    1:n_xi1/xi=   1.7061 
 +  1:n_xi1/xi=   1.7061    1:n_xi1/xi=   1.7061    1:n_xi1/xi=   1.7061 
 +  1:n_xi1/xi=   1.7061    1:n_vdd!_x=   1.6996    1:n_xi1/xi=   1.7061 
 +  1:n_xi1/xi=   1.7061    1:n_xi1/xi=   1.7061    1:n_xi1/xi=   1.7061 
 +  1:n_xi1/xi=   1.7061    1:n_xi1/xi=   1.7061    1:n_xi1/xi=   1.7061 
 +  1:n_xi1/xi=   1.7061    1:n_xi1/xi=   1.7060    1:n_xi1/xi=   1.7060 
 +  1:n_xi1/ne=   1.6920    1:n_xi1/xi=   1.7061    1:n_xi1/xi=   1.7060 
 +  1:n_xi1/xi=   1.7059    1:n_xi1/xi=   1.7060    1:n_xi1/xi=   1.7059 
 +  1:n_xi1/xi=   7.4195m   1:n_xi1/xi=   7.4219m   1:n_xi1/xi=   7.4222m
 +  1:n_xi1/xi=   7.4222m   1:n_xi1/xi=   8.3932m   1:n_xi1/xi=   7.4222m
 +  1:n_xi1/xi=   7.4222m   1:n_xi1/xi=   7.3814m   1:n_xi1/xi=   7.3815m
 +  1:n_xi1/xi=   7.3815m   1:n_xi1/xi=   7.4222m   1:n_xi1/xi=   7.4222m
 +  1:n_xi1/xi=   7.4222m   1:n_xi1/xi=   7.3815m   1:n_xi1/xi=   7.4190m
 +  1:n_s<7>_x=   1.6927    1:n_xi1/xi=   7.4222m   1:n_xi1/xi=   7.3817m
 +  1:n_xi1/xi=   7.4221m   1:n_xi1/xi=   7.3818m   1:n_xi1/xi=   7.4215m
 +  1:n_xi1/xi=   7.3840m   1:n_xi1/xi=   7.3845m   1:n_xi1/xi=   7.3881m
 +  1:n_xi1/xi=   7.3881m   1:n_xi1/xi=   7.3881m   1:n_xi1/ne=   1.6937 
 +  1:n_xi1/xi=   7.3881m   1:n_xi1/xi=   7.3881m   1:n_xi1/xi=   7.3881m
 +  1:n_xi1/xi=   7.3881m   1:n_xi1/xi=   5.8446m   1:n_xi1/xi=   5.8378m
 +  1:n_xi1/xi=   5.8379m   1:n_xi1/xi=   5.7037m   1:n_xi1/xi=   5.7071m
 +  1:n_net9_x=   1.7073    1:n_xi1/xi=   5.7074m   1:n_xi1/xi=   5.7100m
 +  1:n_xi1/xi=   5.7010m   1:n_xi1/xi=   5.7046m   1:n_xi1/xi=   5.7075m
 +  1:n_xi1/xi=   5.7073m   1:n_xi1/xi=  32.7538m   1:n_xi1/xi=  32.7535m
 +  1:n_xi1/xi=  32.7641m   1:n_xi1/ne=   1.6920    1:n_xi1/xi=  32.7684m
 +  1:n_xi1/xi=  32.7189m   1:n_xi1/xi=  32.7489m   1:n_xi1/xi=  32.7520m
 +  1:n_xi1/xi=  32.7525m   1:n_xi1/xi=  32.7487m   1:n_xi1/xi=  32.5531m
 +  1:n_xi1/xi=  32.5505m   1:n_xi1/xi=  32.2679m   1:n_xi1/xi=  32.5546m
 +  1:n_net9_x=   1.7073    1:n_xi1/xi=  32.5547m   1:n_xi1/xi=  32.5554m
 +  1:n_xi1/xi=  32.6427m   1:n_xi1/xi=   7.7407m   1:n_xi1/xi=   7.7431m
 +  1:n_xi1/xi=   7.7434m   1:n_xi1/xi=   7.7435m   1:n_xi1/xi=   7.7435m
 +  1:n_xi1/xi=   7.7435m   1:n_s<7>_x=   1.6927    1:n_xi1/xi=   7.7001m
 +  1:n_xi1/xi=   7.7001m   1:n_xi1/xi=   7.7001m   1:n_xi1/xi=   7.7435m
 +  1:n_xi1/xi=   7.7435m   1:n_xi1/xi=   7.7435m   1:n_xi1/xi=   7.7430m
 +  1:n_xi1/xi=   7.7435m   1:n_xi1/xi=   7.7004m   1:n_xi1/xi=   7.7434m
 +  1:n_xi1/ne=   1.6937    1:n_xi1/xi=   7.7005m   1:n_xi1/xi=   7.7428m
 +  1:n_xi1/xi=   7.7030m   1:n_xi1/xi=   7.8365m   1:n_xi1/xi=   7.8316m
 +  1:n_xi1/xi=   7.7219m   1:n_xi1/xi=   7.8366m   1:n_xi1/xi=   8.0421m
 +  1:n_xi1/xi=   7.9463m   1:n_xi1/xi=   8.0472m   1:n_xi1/xi=   8.4590m
 +  1:n_xi1/xi=   1.7009    1:n_xi1/xi=   1.7009    1:n_xi1/xi=   1.7009 
 +  1:n_xi1/xi=   1.7009    1:n_xi1/xi=   1.7009    1:n_xi1/xi=   1.7009 
 +  1:n_xi1/xi=   1.7009    1:n_xi1/xi=   1.7009    1:n_xi1/xi=   1.7009 
 +  1:n_s<7>_x=   1.6927    1:n_xi1/xi=   1.7009    1:n_xi1/xi=   1.7009 
 +  1:n_xi1/xi=   1.7009    1:n_xi1/xi=   1.7009    1:n_xi1/xi=   1.7009 
 +  1:n_xi1/xi=   1.7009    1:n_xi1/xi=   1.7009    1:n_xi1/xi=   1.7009 
 +  1:n_xi1/xi=   1.7009    1:n_xi1/xi=   1.7009    1:n_xi1/xi=   1.7009 
 +  1:n_xi1/xi=   1.7009    1:n_xi1/xi=   1.7008    1:n_xi1/xi=   1.7008 
 +  1:n_xi1/xi=   1.7008    1:n_xi1/xi=   1.7009    1:n_xi1/xi=   1.7007 
 +  1:n_xi1/xi=   1.7008    1:n_xi1/xi=   1.7007    1:n_xi1/xi=   8.3180m
 +  1:n_xi1/xi=   9.3369m   1:n_xi1/xi=   9.3305m   1:n_xi1/xi=   9.3306m
 +  1:n_xi1/xi=   9.1822m   1:n_xi1/xi=   9.2054m   1:n_xi1/xi=   9.2210m
 +  1:n_xi1/xi=   9.2098m   1:n_xi1/xi=   9.1822m   1:n_xi1/xi=   9.1866m
 +  1:n_xi1/xi=   9.2291m   1:n_net9_x=   1.7070    1:n_xi1/xi=   9.2073m
 +  1:n_xi1/xi=   1.7544    1:n_xi1/xi=   1.7544    1:n_xi1/xi=   1.7544 
 +  1:n_xi1/xi=   1.7544    1:n_xi1/xi=   1.7560    1:n_xi1/xi=   1.7544 
[...]
  vod         -1.9550     327.3539m    113.8446m    332.6232m   -312.8443m
  beta         9.1688m      3.0639m      3.2901m      3.0543m      9.2349m
  gam eff    400.0000m    400.0000m    400.0000m    400.0000m    400.0000m
  gm         276.2595n     68.6112n     19.2800u     58.1956n    175.5074n
  gds         25.7869n     10.5782n      3.2422u      8.9487n     16.4126n
  gmb         67.8753n     16.5352n      3.7159u     14.1031n     43.9402n
  cdtot      508.9070a    494.0399a    494.2460a    494.0497a    468.6290a
  cgtot      180.3759a    181.8221a    203.0710a    181.4034a    177.9587a
  cstot      412.8061a    467.1432a    488.1859a    466.7147a    450.6668a
  cbtot      742.4892a    780.5130a    780.5130a    780.5130a    742.4892a
  cgs         69.7935a    107.1147a    128.1574a    106.6862a    107.6542a
  cgd        110.0064a     74.1314a     74.3375a     74.1412a     69.7284a



 subckt     x1           x1           x1           x1           x1        
 element    1:mxi1/xi2   1:mxi1/xi2   1:mxi1/xi2   1:mxi1/xi2   1:mxi1/xi2
 model      0:nmos_vtg   0:nmos_vtg   0:pmos_vtg   0:pmos_vtg   0:pmos_vtg
 region         Cutoff       Cutoff       Linear       Cutoff       Linear
  id         503.0537f    -50.0870a     -4.9507u     82.2048n     -2.8942u
  ibs         -1.6721p     -1.7732p     -2.8534f      1.7003p    -99.9833f
  ibd         -1.7702p     -1.7702p      2.4231f    -96.8533f    -96.8429f
  vgs        101.4713m   -101.1673m     -1.7031       1.7993      -1.7990 
  vds         98.1611m     -3.0063m     -5.2708m      1.7960      -2.9991m
  vbs         -1.6720      -1.7732      -2.8498m      1.7003     -98.7273m
  vth        664.0075m    683.1200m   -382.4880m   -206.0474m   -364.6057m
  vdsat       41.6322m     41.6329m   -639.1389m    -40.1878m   -678.6599m
  vod       -562.5362m   -784.2874m     -1.3206       2.0054      -1.4344 
  beta         4.5189m      4.3696m      1.4486m      3.2663m      1.4048m
  gam eff    400.0000m    400.0000m    400.0000m    400.0000m    400.0000m
  gm          15.9158p      1.5909f    796.3949n      2.1381u    370.2043n
  gds          1.6243p     16.0750f    935.3060u    345.0418n    962.8464u
  gmb          2.3320p    239.5881a    654.5853n    434.4881n    315.2446n
  cdtot      509.8301a    498.6117a    565.2982a    537.6412a    565.3227a
  cgtot      231.8737a    199.6814a    291.3568a    192.3672a    291.4050a
  cstot      463.3808a    442.4069a    505.4196a    434.0870a    505.4433a
  cbtot      742.4892a    742.4892a    780.5130a    780.5130a    780.5130a
  cgs        120.3682a     99.3943a    145.3911a     74.0585a    145.4148a
  cgd        110.9295a     99.7111a    145.3897a    117.7327a    145.4142a



 subckt     x1           x1           x1           x1           x1        
 element    1:mxi1/xi2   1:mxi1/xi2   1:mxi1/xi2   1:mxi1/xi2   1:mxi1/xi2
 model      0:nmos_vtg   0:nmos_vtg   0:pmos_vtg   0:pmos_vtg   0:nmos_vtg
 region         Linear       Linear       Cutoff       Cutoff       Cutoff
  id          27.1791u     27.1147u    -11.4571n   -154.8574n     87.5030n
  ibs       -384.0687a     -4.3291f     -1.0191f   -647.6135a      3.9421a
  ibd         -4.3278f     -8.2836f      1.6660p      1.6660p     -1.6717p
  vgs          1.7690       1.6693      94.1265m     -1.3152m      8.3852m
  vds          3.9231m      3.9378m     -1.6669      -1.6666       1.6716 
  vbs       -384.9645u     -4.3080m   -978.4517u   -631.5886u    -29.2887u
  vth        410.7209m    411.5429m   -235.4130m   -235.5221m    286.4807m
  vdsat      698.7929m    653.8743m    -40.6268m    -40.7515m     39.4409m
  vod          1.3582       1.2578     329.5395m    234.2069m   -278.0955m
  beta        17.6273m     18.6364m     15.0927m     15.1244m     48.9193m
  gam eff    400.0000m    400.0000m    400.0000m    400.0000m    400.0000m
  gm           1.3436u      1.7529u    317.2279n      4.1502u      2.3759u
  gds          6.9124m      6.8690m     48.8780n    648.3320n    222.7081n
  gmb          3.0226u      3.1994u     76.6983n    946.8491n    583.1779n
  cdtot        2.6962f      2.6487f      2.0430f      2.0439f      2.1042f
  cgtot        1.6322f      1.6319f    893.3485a    950.3068a    960.6687a
  cstot        2.3180f      2.3707f      1.8681f      1.9231f      1.9489f
  cbtot        3.3831f      3.3886f      3.0189f      3.0179f      3.0937f
  cgs        815.8320a    815.6858a    527.2301a    583.2266a    590.4304a
  cgd        815.8268a    815.6795a    365.5425a    366.5042a    369.6623a



 subckt     x1           x1           x1           x1           x1        
 element    1:mxi1/xi2   1:mxi1/xi2   1:mxi1/xi2   1:mxi1/xi2   1:mxi1/xi2
 model      0:pmos_vtg   0:nmos_vtg   0:nmos_vtg   0:pmos_vtg   0:pmos_vtg
 region         Linear       Cutoff       Cutoff       Linear       Cutoff
  id         -18.2654u     17.7505n    302.6712n     -1.2000u   -308.6809f
  ibs       -177.8179a    -54.3387a     -1.3623p   -205.1960a   -107.2640a
  ibd          2.7878f     -1.3623p     -1.6745p     57.8173a     59.5932a
  vgs         -1.6661     -26.3256m    411.3701m     -1.7008      98.9299m
  vds         -2.9469m      1.3621     312.2629m   -261.7022u   -166.0227u
  vbs       -174.7509u    -54.5638u     -1.3621    -202.4223u   -106.7427u
  vth       -383.2273m    309.5428m    608.4936m   -383.4601m   -383.4884m
  vdsat     -627.4015m     39.6557m     41.9608m   -641.3444m    -42.0904m
  vod         -1.2828    -335.8684m   -197.1234m     -1.3174     482.4183m
  beta         9.8931m     53.0103m     29.9414m      7.1462m     11.4709m
  gam eff    400.0000m    400.0000m    400.0000m    400.0000m    400.0000m
  gm           3.0799u    490.2116n      8.4886u    188.4738n      8.6508p
  gds          6.1834m     42.8860n    714.1681n      4.5843m      1.8557n
  gmb          2.4538u    124.5120n      1.2370u    157.1426n      2.3087p
  cdtot        3.3379f      2.3030f      2.5541f      2.3944f      2.2019f
  cgtot        1.9557f      1.0692f      1.5169f      1.4344f      1.0495f
  cstot        2.9102f      2.1481f      2.3503f      2.0578f      1.8644f
  cbtot        4.2935f      3.3831f      3.3886f      3.0189f      3.0179f
  cgs        977.5601a    645.8796a    795.2736a    716.9256a    524.5326a
  cgd        977.5543a    422.6963a    721.0640a    716.9253a    524.4399a



 subckt     x1           x1           x1           x1           x1        
 element    1:mxi1/xi2   1:mxi1/xi2   1:mxi1/xi3   1:mxi1/xi3   1:mxi1/xi3
 model      0:nmos_vtg   0:pmos_vtg   0:nmos_vtg   0:nmos_vtg   0:pmos_vtg
 region         Linear       Cutoff       Cutoff       Cutoff       Linear
  id          10.3858u   -209.3841n     35.9803n     35.8982n    -18.5967u
  ibs        -22.1357a    -37.8042a      1.7300a      1.7488a    179.7895a
  ibd         -1.7342f      1.6729p     -1.6647p     -1.6647p      3.9713f
  vgs          1.6742    -169.9644u      2.1106m      2.0249m     -1.6701 
  vds          1.7040m     -1.6727       1.6646       1.6647      -3.7723m
  vbs        -23.5318u    -18.5527u    -14.7535u    -14.7535u    180.3968u
  vth        410.8108m   -235.0943m    287.0043m    287.0028m   -383.2252m
  vdsat      656.2026m    -40.7466m     39.4316m     39.4315m   -628.9158m
  vod          1.2634     234.9243m   -284.8936m   -284.9780m     -1.2869 
  beta        16.4144m     20.6414m     24.2644m     24.2645m      7.8500m
  gam eff    400.0000m    400.0000m    400.0000m    400.0000m    400.0000m
  gm         649.3971n      5.6143u    979.5576n    977.3523n      3.1239u
  gds          6.0884m    878.0374n     91.6349n     91.4284n      4.9148m
  gmb          1.2216u      1.2823u    241.3873n    240.8555n      2.4935u
  cdtot        2.4546f      2.8600f      1.0910f      1.0284f      2.5826f
  cgtot        1.4406f      1.2947f    475.4781a    475.4530a      1.5547f
  cstot        2.0785f      2.7270f      1.0562f      1.0562f      2.1979f
  cbtot        3.0937f      4.2935f      1.6729f      1.6103f      3.2271f
  cgs        720.0258a    794.4051a    291.3598a    291.3352a    777.0412a
  cgd        720.0234a    499.6733a    183.5424a    183.5418a    777.0354a



 subckt     x1           x1           x1           x1           x1        
 element    1:mxi1/xi3   1:mxi1/xi3   1:mxi1/xi3   1:mxi1/xi3   1:mxi1/xi3
 model      0:pmos_vtg   0:nmos_vtg   0:pmos_vtg   0:nmos_vtg   0:nmos_vtg
 region         Linear       Linear       Cutoff       Cutoff       Cutoff
  id         -18.5207u      9.3677u   -255.3211n      7.0308n     -1.2374f
  ibs          3.9713f    -14.6003a     -7.1636a     -6.7349a     -1.6688p
  ibd          7.7474f     -1.5597f      1.6711p     -1.6688p     -1.6670p
  vgs         -1.6664       1.6645      -7.8733m    -22.6199m      1.7196m
  vds         -3.7611m      1.5378m     -1.6709       1.6688      -1.9258m
  vbs          3.9527m    -15.9445u      9.8910u    -15.3987u     -1.6688 
  vth       -383.9793m    410.8217m   -235.2609m    286.7010m    670.5576m
  vdsat     -627.3351m    651.8539m    -40.7774m     39.3869m     41.6817m
  vod         -1.2824       1.2537     227.3876m   -309.3209m   -668.8381m
  beta         7.8592m     16.5057m     20.6426m      9.2328m      4.4669m
  gam eff    400.0000m    400.0000m    400.0000m    400.0000m    400.0000m
  gm           3.1390u    600.0495n      6.8161u    192.9477n     39.1555f
  gds          4.9093m      6.0859m      1.0676u     18.0365n    679.9648f
  gmb          2.4865u      1.1085u      1.5499u     48.2224n      5.8870f
  cdtot        2.5067f      2.4546f      2.8602f    468.6415a    509.8511a
  cgtot        1.5546f      1.4406f      1.3008f    178.3785a    222.2827a
  cstot        2.2712f      2.0785f      2.7331f    451.0742a    453.7688a
  cbtot        3.2244f      3.0937f      4.2935f    742.4892a    742.4892a
  cgs        777.0355a    720.0121a    800.4554a    108.0616a    110.7562a
  cgd        777.0297a    720.0099a    499.8101a     69.7409a    110.9505a



 subckt     x1           x1           x1           x1           x1        
 element    1:mxi1/xi3   1:mxi1/xi3   1:mxi1/xi3   1:mxi1/xi3   1:mxi1/xi3
 model      0:nmos_vtg   0:pmos_vtg   0:pmos_vtg   0:pmos_vtg   0:nmos_vtg
 region         Cutoff       Linear       Cutoff       Linear       Cutoff
  id          -2.0576f     -4.6393u     29.2694n     -2.9788u      6.2472n
  ibs         -1.6702p     -1.2117f      1.6952p      2.3563f     -8.1592a
  ibd         -1.6670p      3.7378f      5.5294f      5.5328f     -1.6638p
  vgs         -1.3861m     -1.6963       1.6931      -1.6928     -26.4537m
  vds         -3.3119m     -4.9444m      1.6895      -3.3041m      1.6637 
  vbs         -1.6702      -1.2100m      1.6951       2.3669m    -16.7171u
  vth        670.4535m   -382.8439m   -234.7087m   -383.7130m    287.0754m
  vdsat       41.6811m   -636.3582m    -40.7392m   -634.8150m     39.3889m
  vod       -671.8396m     -1.3135       1.9278      -1.3090    -313.5291m
  beta         4.4677m      1.4525m      3.0717m      1.4540m      9.2262m
  gam eff    400.0000m    400.0000m    400.0000m    400.0000m    400.0000m
  gm          65.1102f    755.3007n    786.8991n    486.2376n    171.6387n
  gds        622.7264f    934.5504u    123.3396n    936.2293u     16.0237n
  gmb          9.7930f    617.7394n    179.4246n    397.7385n     43.0024n
  cdtot      509.6636a    565.2964a    537.6186a    565.2959a    468.6438a
  cgtot      221.7540a    291.3532a    192.5532a    291.3517a    177.9515a
  cstot      453.4277a    505.4178a    434.2956a    505.4168a    450.6448a
  cbtot      742.4892a    780.5130a    780.5130a    780.5130a    742.4892a
  cgs        110.4151a    145.3893a     74.2671a    145.3883a    107.6322a
  cgd        110.7630a    145.3879a    117.7101a    145.3874a     69.7432a



 subckt     x1           x1           x1           x1           x1        
 element    1:mxi1/xi3   1:mxi1/xi3   1:mxi1/xi3   1:mxi1/xi3   1:mxi1/xi3
 model      0:nmos_vtg   0:nmos_vtg   0:pmos_vtg   0:pmos_vtg   0:pmos_vtg
 region         Cutoff       Linear       Linear       Cutoff       Cutoff
  id         -14.5994n      3.4008u     -9.3440u      2.4923f      2.2359f
  ibs         -1.6638p     26.1652f     -1.2495f      1.6990p      1.6987p
  ibd         23.2771f     23.2688f      8.7525f      1.6958p      1.6958p
  vgs         -1.6902       1.6898      -1.7002     -16.5537u   -340.9131u
  vds         -1.6870       2.8888m     -9.9927m      3.2330m      2.8927m
  vbs         -1.6637      26.1194m     -1.2478m      1.6990       1.6986 
  vth        280.5258m    405.3124m   -382.3885m   -627.9831m   -628.0133m
  vdsat       39.3295m    660.9783m   -638.0399m    -48.3496m    -48.3498m
  vod         -1.9708       1.2845      -1.3178     627.9665m    627.6723m
  beta         9.3426m      3.0848m      1.4505m      1.6139m      1.6139m
  gam eff    400.0000m    400.0000m    400.0000m    400.0000m    400.0000m
  gm         395.8697n    203.0300n      1.5361u     79.0709f     70.9360f
  gds         37.2337n      1.1751m    927.5850u    747.8090f    752.2806f
  gmb         95.2253n    389.5999n      1.2427u     10.5797f      9.4919f
  cdtot      509.1125a    534.8529a    565.2961a    538.4118a    538.4099a
  cgtot      180.5311a    272.4813a    291.3539a    237.2035a    237.2398a
  cstot      412.7557a    478.9656a    505.4188a    478.1528a    478.1909a
  cbtot      742.4892a    742.4892a    780.5130a    780.5130a    780.5130a
  cgs         69.7431a    135.9530a    145.3903a    118.1243a    118.1624a
  cgd        110.2119a    135.9523a    145.3876a    118.5033a    118.5014a



 subckt     x1           x1           x1           x1           x1        
 element    1:mxi1/xi3   1:mxi1/xi3   1:mxi1/xi3   1:mxi1/xi3   1:mxi1/xi3
 model      0:nmos_vtg   0:nmos_vtg   0:pmos_vtg   0:pmos_vtg   0:nmos_vtg
 region         Cutoff       Cutoff       Linear       Cutoff       Linear
  id          17.3646n     94.2801n   -984.6207n     -2.0417p     11.0827u
  ibs        -15.2315a     -1.3114p   -422.0141a   -269.2293a    -16.9229a
  ibd         -1.3114p     -1.6729p   -206.0638a   -204.3517a     -1.8442f
  vgs        -22.7029m    359.2616m     -1.6955      -2.2935m      1.6725 
  vds          1.3112     361.4815m   -214.9018u    -64.5865u      1.8187m
  vbs        -15.2845u     -1.3112    -418.2214u   -267.9060u    -18.3284u
  vth        313.3216m    598.0730m   -383.4211m   -383.4652m    410.8012m
  vdsat       39.6965m     41.7046m   -639.1774m    -42.0919m    655.4512m
  vod       -336.0245m   -238.8114m     -1.3121     381.1717m      1.2617 
  beta        52.6238m     30.5207m      7.1626m     11.4730m     16.4304m
  gam eff    400.0000m    400.0000m    400.0000m    400.0000m    400.0000m
  gm         479.5680n      2.7732u    156.0852n     56.9214p    696.6135n
  gds         41.5474n    229.4223n      4.5809m     31.5871n      6.0869m
  gmb        121.8358n    408.5593n    129.3935n     14.2975p      1.3051u
  cdtot        2.3040f      2.4950f      2.3944f      2.2612f      2.4546f
  cgtot        1.0725f      1.4525f      1.4344f      1.1681f      1.4406f
  cstot        2.1505f      2.3450f      2.0578f      1.9237f      2.0785f
  cbtot        3.3831f      3.3886f      3.0189f      3.0179f      3.0937f
  cgs        648.3140a    789.9899a    716.9185a    583.7914a    720.0235a
  cgd        423.6569a    661.9506a    716.9182a    583.7541a    720.0209a



 subckt     x1           x1           x1           x1           x1        
 element    1:mxi1/xi3   1:mxi1/xi3   1:mxi1/xi3   1:mxi1/xi3   1:mxi1/xi3
 model      0:pmos_vtg   0:nmos_vtg   0:nmos_vtg   0:pmos_vtg   0:pmos_vtg
 region         Cutoff       Cutoff       Cutoff       Linear       Linear
  id        -206.5483n    928.4186p    933.0872p    -14.5171u    -14.4089u
  ibs        -95.2407a    -15.3023a    -98.8990f      4.7288a     28.5480a
  ibd          1.6708p    -98.9515f     -1.6691p      3.1944f      3.1944f
  vgs         37.8461u    -26.2971m   -125.0764m     -1.6987      -1.6986 
  vds         -1.6707      98.7921m      1.5702      -3.1746m     -3.1509m
  vbs        -76.0000u    -15.2176u    -98.8073m      6.4470u     30.1492u
  vth       -235.2609m    403.5818m    314.2183m   -383.2434m   -383.2502m
  vdsat      -40.7471m     40.6341m     39.7256m   -640.5296m   -640.5146m
  vod        235.2988m   -429.8789m   -439.2947m     -1.3154      -1.3154 
  beta        20.6340m     44.1391m     52.5335m      7.1536m      7.1537m
  gam eff    400.0000m    400.0000m    400.0000m    400.0000m    400.0000m
  gm           5.5394u     25.9163n     26.4379n      2.3117u      2.2945u
  gds        865.8727n      2.7349n      2.4067n      4.5614m      4.5616m
  gmb          1.2654u      6.9640n      6.6641n      1.9064u      1.8922u
  cdtot        2.8600f      2.4620f      2.2514f      2.3944f      2.3944f
  cgtot        1.2945f      1.2282f      1.0007f      1.4344f      1.4344f
  cstot        2.7269f      2.1481f      2.1367f      2.0578f      2.0568f
  cbtot        4.2935f      3.3831f      3.3886f      3.0189f      3.0179f
  cgs        794.2409a    645.8987a    581.7024a    716.9227a    716.9227a
  cgd        499.6990a    581.6947a    418.4002a    716.9185a    716.9184a



 subckt     x1           x1        
 element    1:mxi1/xi3   1:mxi1/xi3
 model      0:nmos_vtg   0:pmos_vtg
 region         Linear       Cutoff
  id          10.6791u   -227.1210n
  ibs        -16.3646a    -20.0533a
  ibd         -1.7775f      1.6709p
  vgs          1.6689      -3.5241m
  vds          1.7528m     -1.6707 
  vbs        -17.7396u     -2.0665u
  vth        410.8060m   -235.2765m
  vdsat      653.8175m    -40.7602m
  vod          1.2581     231.7524m
  beta        16.4646m     20.6371m
  gam eff    400.0000m    400.0000m
  gm         677.3480n      6.0789u
  gds          6.0860m    951.0217n
  gmb          1.2604u      1.3858u
  cdtot        2.4546f      2.8601f
  cgtot        1.4406f      1.2974f
  cstot        2.0785f      2.7297f
  cbtot        3.0937f      4.2935f
  cgs        720.0183a    797.0483a
  cgd        720.0158a    499.7503a




          ***** job aborted
1****** HSPICE -- D-2010.03-SP2 32-BIT (Aug 26 2010) linux ******               
 ******  
 .include

  ******  job statistics summary tnom=  25.000 temp=  25.000 *****
 
 
 ******  Machine Information  ******
 CPU:
 model name	: Intel(R) Xeon(R) CPU E5-1620 0 @ 3.60GHz
 cpu MHz	: 1200.000
 
 OS:
 Linux version 2.6.32-358.6.2.el6.x86_64 (mockbuild@x86-022.build.eng.bos.redhat
 .com) (gcc version 4.4.7 20120313 (Red Hat 4.4.7-3) (GCC) ) #1 SMP Tue May 14 1
 5:48:21 EDT 2013


  ******  HSPICE Threads Information  ******

  Command Line Threads Count                  :     1
  Available CPU Count                         :     8
  Actual Model Evaluation(Load) Threads Count :     1
  Actual Solver Threads Count                 :     1


  ******  Circuit Statistics  ******
  # nodes       =    8960 # elements   =   23057
  # resistors   =    7877 # capacitors =   14791 # inductors   =       0
  # mutual_inds =       0 # vccs       =       0 # vcvs        =       0
  # cccs        =       0 # ccvs       =       0 # volt_srcs   =      17
  # curr_srcs   =       0 # diodes     =       0 # bjts        =       0
  # jfets       =       0 # mosfets    =     372 # U elements  =       0
  # T elements  =       0 # W elements =       0 # B elements  =       0
  # S elements  =       0 # P elements =       0 # va device   =       0


  ******  Runtime Statistics (seconds)  ******

  analysis           time    # points   tot. iter  conv.iter
  op point         248.34           1       46685
  transient          0.00         101           0           0 rev=         0
  readin             0.40
  errchk             0.13
  setup              0.26
  output             0.00


           total memory used        15733  kbytes
           total cpu time          249.12 seconds
           total elapsed time      250.94 seconds
           job started at     11:20:59 06/08/2013
           job ended   at     11:25:10 06/08/2013


 lic: Release hspice token(s) 
