Using: /usr/bin/time -p /vol/synopsys2010/hspice_vD-2010.03-SP2/hspice/linux/hspice BIT_SELECT_layout.sp
 ****** HSPICE -- D-2010.03-SP2 32-BIT (Aug 26 2010) linux ******               
  Copyright (C) 2010 Synopsys, Inc. All Rights Reserved.                        
  Unpublished-rights reserved under US copyright laws.
  This program is protected by law and is subject to the 
  terms and conditions of the license agreement from Synopsys.
  Use of this program is your acceptance to be bound by the 
  license agreement. HSPICE is the trademark of Synopsys, Inc.
  Input File: BIT_SELECT_layout.sp                                              
 lic:  
 lic: FLEXlm: v10.8 
 lic: USER:   sjz474               HOSTNAME: alfred.ece.northwestern.edu 
 lic: HOSTID: 1803731fd009         PID:      3474 
 lic: Using FLEXlm license file: 
 lic: -1@cadfs.ece.northwestern.edu 
 lic: Checkout 1 hspice 
 lic: License/Maintenance for hspice will expire on 15-oct-2013/2012.06 
 lic: 1(in_use)/50(total) FLOATING license(s) on SERVER cadfs.ece.northwestern.e
 lic:   
 Init: read install configuration file: /vol/synopsys2010/hspice_vD-2010.03-SP2/hspice/meta.cfg
 **warning** Warning(s) associated with encrypted block(s) were suppressed due to encrypted content.
1****** HSPICE -- D-2010.03-SP2 32-BIT (Aug 26 2010) linux ******               
 ******  
 .include

  ******  circuit name directory
 circuit number to circuit name directory
   number circuitname                     definition         multiplier
        0 main circuit
        1 x1.                             bit_select         1.00 
        2 x1.x_pm_bit_select%xi1/xi11/net10.
                                            pm_bit_select%xi1/xi11/net10
                                                                 1.00 
        3 x1.x_pm_bit_select%xi1/xi12/net10.
                                            pm_bit_select%xi1/xi12/net10
                                                                 1.00 
        4 x1.x_pm_bit_select%xi1/xi13/net10.
                                            pm_bit_select%xi1/xi13/net10
                                                                 1.00 
        5 x1.x_pm_bit_select%xi1/xi14/net10.
                                            pm_bit_select%xi1/xi14/net10
                                                                 1.00 
        6 x1.x_pm_bit_select%xi1/xi10/net10.
                                            pm_bit_select%xi1/xi10/net10
                                                                 1.00 
        7 x1.x_pm_bit_select%xi3/xi0/xi0/net9.
                                            pm_bit_select%xi3/xi0/xi0/net9
                                                                 1.00 
        8 x1.x_pm_bit_select%xi3/xi3/xi5/net9.
                                            pm_bit_select%xi3/xi3/xi5/net9
                                                                 1.00 
        9 x1.x_pm_bit_select%xi3/xi3/xi0/net9.
                                            pm_bit_select%xi3/xi3/xi0/net9
                                                                 1.00 
       10 x1.x_pm_bit_select%xi3/xi1/xi5/net9.
                                            pm_bit_select%xi3/xi1/xi5/net9
                                                                 1.00 
       11 x1.x_pm_bit_select%xi3/xi1/xi0/net9.
                                            pm_bit_select%xi3/xi1/xi0/net9
                                                                 1.00 
       12 x1.x_pm_bit_select%xi3/xi2/xi5/net9.
                                            pm_bit_select%xi3/xi2/xi5/net9
                                                                 1.00 
       13 x1.x_pm_bit_select%xi3/xi2/xi0/net9.
                                            pm_bit_select%xi3/xi2/xi0/net9
                                                                 1.00 
       14 x1.x_pm_bit_select%xi1/xi4/xi5/net9.
                                            pm_bit_select%xi1/xi4/xi5/net9
                                                                 1.00 
       15 x1.x_pm_bit_select%xi1/xi4/xi0/net9.
                                            pm_bit_select%xi1/xi4/xi0/net9
                                                                 1.00 
       16 x1.x_pm_bit_select%xi1/xi5/xi5/net9.
                                            pm_bit_select%xi1/xi5/xi5/net9
                                                                 1.00 
       17 x1.x_pm_bit_select%xi1/xi5/xi0/net9.
                                            pm_bit_select%xi1/xi5/xi0/net9
                                                                 1.00 
       18 x1.x_pm_bit_select%xi1/xi0/xi5/net9.
                                            pm_bit_select%xi1/xi0/xi5/net9
                                                                 1.00 
       19 x1.x_pm_bit_select%xi1/xi0/xi0/net9.
                                            pm_bit_select%xi1/xi0/xi0/net9
                                                                 1.00 
       20 x1.x_pm_bit_select%xi1/xi1/xi5/net9.
                                            pm_bit_select%xi1/xi1/xi5/net9
                                                                 1.00 
       21 x1.x_pm_bit_select%xi1/xi1/xi0/net9.
                                            pm_bit_select%xi1/xi1/xi0/net9
                                                                 1.00 
       22 x1.x_pm_bit_select%xi1/xi6/xi5/net9.
                                            pm_bit_select%xi1/xi6/xi5/net9
                                                                 1.00 
       23 x1.x_pm_bit_select%xi1/xi6/xi0/net9.
                                            pm_bit_select%xi1/xi6/xi0/net9
                                                                 1.00 
       24 x1.x_pm_bit_select%xi1/xi7/xi5/net9.
                                            pm_bit_select%xi1/xi7/xi5/net9
                                                                 1.00 
       25 x1.x_pm_bit_select%xi1/xi7/xi0/net9.
                                            pm_bit_select%xi1/xi7/xi0/net9
                                                                 1.00 
       26 x1.x_pm_bit_select%xi1/xi2/xi5/net9.
                                            pm_bit_select%xi1/xi2/xi5/net9
                                                                 1.00 
       27 x1.x_pm_bit_select%xi1/xi2/xi0/net9.
                                            pm_bit_select%xi1/xi2/xi0/net9
                                                                 1.00 
       28 x1.x_pm_bit_select%xi1/xi3/xi5/net9.
                                            pm_bit_select%xi1/xi3/xi5/net9
                                                                 1.00 
       29 x1.x_pm_bit_select%xi1/xi3/xi0/net9.
                                            pm_bit_select%xi1/xi3/xi0/net9
                                                                 1.00 
       30 x1.x_pm_bit_select%xi3/xi0/xi2/net8.
                                            pm_bit_select%xi3/xi0/xi2/net8
                                                                 1.00 
       31 x1.x_pm_bit_select%xi3/xi3/xi8/net8.
                                            pm_bit_select%xi3/xi3/xi8/net8
                                                                 1.00 
       32 x1.x_pm_bit_select%xi3/xi3/xi9/net8.
                                            pm_bit_select%xi3/xi3/xi9/net8
                                                                 1.00 
       33 x1.x_pm_bit_select%xi3/xi1/xi8/net8.
                                            pm_bit_select%xi3/xi1/xi8/net8
                                                                 1.00 
       34 x1.x_pm_bit_select%xi3/xi1/xi9/net8.
                                            pm_bit_select%xi3/xi1/xi9/net8
                                                                 1.00 
       35 x1.x_pm_bit_select%xi3/xi2/xi8/net8.
                                            pm_bit_select%xi3/xi2/xi8/net8
                                                                 1.00 
       36 x1.x_pm_bit_select%xi3/xi2/xi9/net8.
                                            pm_bit_select%xi3/xi2/xi9/net8
                                                                 1.00 
       37 x1.x_pm_bit_select%xi1/xi4/xi8/net8.
                                            pm_bit_select%xi1/xi4/xi8/net8
                                                                 1.00 
       38 x1.x_pm_bit_select%xi1/xi4/xi9/net8.
                                            pm_bit_select%xi1/xi4/xi9/net8
                                                                 1.00 
       39 x1.x_pm_bit_select%xi1/xi5/xi8/net8.
                                            pm_bit_select%xi1/xi5/xi8/net8
                                                                 1.00 
       40 x1.x_pm_bit_select%xi1/xi5/xi9/net8.
                                            pm_bit_select%xi1/xi5/xi9/net8
                                                                 1.00 
       41 x1.x_pm_bit_select%xi1/xi0/xi8/net8.
                                            pm_bit_select%xi1/xi0/xi8/net8
                                                                 1.00 
       42 x1.x_pm_bit_select%xi1/xi0/xi9/net8.
                                            pm_bit_select%xi1/xi0/xi9/net8
                                                                 1.00 
       43 x1.x_pm_bit_select%xi1/xi1/xi8/net8.
                                            pm_bit_select%xi1/xi1/xi8/net8
                                                                 1.00 
       44 x1.x_pm_bit_select%xi1/xi1/xi9/net8.
                                            pm_bit_select%xi1/xi1/xi9/net8
                                                                 1.00 
       45 x1.x_pm_bit_select%xi1/xi6/xi8/net8.
                                            pm_bit_select%xi1/xi6/xi8/net8
                                                                 1.00 
       46 x1.x_pm_bit_select%xi1/xi6/xi9/net8.
                                            pm_bit_select%xi1/xi6/xi9/net8
                                                                 1.00 
       47 x1.x_pm_bit_select%xi1/xi7/xi8/net8.
                                            pm_bit_select%xi1/xi7/xi8/net8
                                                                 1.00 
       48 x1.x_pm_bit_select%xi1/xi7/xi9/net8.
                                            pm_bit_select%xi1/xi7/xi9/net8
                                                                 1.00 
       49 x1.x_pm_bit_select%xi1/xi2/xi8/net8.
                                            pm_bit_select%xi1/xi2/xi8/net8
                                                                 1.00 
       50 x1.x_pm_bit_select%xi1/xi2/xi9/net8.
                                            pm_bit_select%xi1/xi2/xi9/net8
                                                                 1.00 
       51 x1.x_pm_bit_select%xi1/xi3/xi8/net8.
                                            pm_bit_select%xi1/xi3/xi8/net8
                                                                 1.00 
       52 x1.x_pm_bit_select%xi1/xi3/xi9/net8.
                                            pm_bit_select%xi1/xi3/xi9/net8
                                                                 1.00 
       53 x1.x_pm_bit_select%xi3/xi3/net11.
                                            pm_bit_select%xi3/xi3/net11
                                                                 1.00 
       54 x1.x_pm_bit_select%xi3/xi3/net14.
                                            pm_bit_select%xi3/xi3/net14
                                                                 1.00 
       55 x1.x_pm_bit_select%xi3/xi3/net7.
                                            pm_bit_select%xi3/xi3/net7
                                                                 1.00 
       56 x1.x_pm_bit_select%xi3/xi3/xi7/net7.
                                            pm_bit_select%xi3/xi3/xi7/net7
                                                                 1.00 
       57 x1.x_pm_bit_select%xi3/xi1/net11.
                                            pm_bit_select%xi3/xi1/net11
                                                                 1.00 
       58 x1.x_pm_bit_select%xi3/xi1/net14.
                                            pm_bit_select%xi3/xi1/net14
                                                                 1.00 
       59 x1.x_pm_bit_select%xi3/xi1/net7.
                                            pm_bit_select%xi3/xi1/net7
                                                                 1.00 
       60 x1.x_pm_bit_select%xi3/xi1/xi7/net7.
                                            pm_bit_select%xi3/xi1/xi7/net7
                                                                 1.00 
       61 x1.x_pm_bit_select%xi3/xi2/net11.
                                            pm_bit_select%xi3/xi2/net11
                                                                 1.00 
       62 x1.x_pm_bit_select%xi3/xi2/net14.
                                            pm_bit_select%xi3/xi2/net14
                                                                 1.00 
       63 x1.x_pm_bit_select%xi3/xi2/net7.
                                            pm_bit_select%xi3/xi2/net7
                                                                 1.00 
       64 x1.x_pm_bit_select%xi3/xi2/xi7/net7.
                                            pm_bit_select%xi3/xi2/xi7/net7
                                                                 1.00 
       65 x1.x_pm_bit_select%xi1/xi4/net11.
                                            pm_bit_select%xi1/xi4/net11
                                                                 1.00 
       66 x1.x_pm_bit_select%xi1/xi4/net14.
                                            pm_bit_select%xi1/xi4/net14
                                                                 1.00 
       67 x1.x_pm_bit_select%xi1/xi4/net7.
                                            pm_bit_select%xi1/xi4/net7
                                                                 1.00 
       68 x1.x_pm_bit_select%xi1/xi4/xi7/net7.
                                            pm_bit_select%xi1/xi4/xi7/net7
                                                                 1.00 
       69 x1.x_pm_bit_select%xi1/xi5/net11.
                                            pm_bit_select%xi1/xi5/net11
                                                                 1.00 
       70 x1.x_pm_bit_select%xi1/xi5/net14.
                                            pm_bit_select%xi1/xi5/net14
                                                                 1.00 
       71 x1.x_pm_bit_select%xi1/xi5/net7.
                                            pm_bit_select%xi1/xi5/net7
                                                                 1.00 
       72 x1.x_pm_bit_select%xi1/xi5/xi7/net7.
                                            pm_bit_select%xi1/xi5/xi7/net7
                                                                 1.00 
       73 x1.x_pm_bit_select%xi1/xi0/net11.
                                            pm_bit_select%xi1/xi0/net11
                                                                 1.00 
       74 x1.x_pm_bit_select%xi1/xi0/net14.
                                            pm_bit_select%xi1/xi0/net14
                                                                 1.00 
       75 x1.x_pm_bit_select%xi1/xi0/net7.
                                            pm_bit_select%xi1/xi0/net7
                                                                 1.00 
       76 x1.x_pm_bit_select%xi1/xi0/xi7/net7.
                                            pm_bit_select%xi1/xi0/xi7/net7
                                                                 1.00 
       77 x1.x_pm_bit_select%xi1/xi1/net11.
                                            pm_bit_select%xi1/xi1/net11
                                                                 1.00 
       78 x1.x_pm_bit_select%xi1/xi1/net14.
                                            pm_bit_select%xi1/xi1/net14
                                                                 1.00 
       79 x1.x_pm_bit_select%xi1/xi1/net7.
                                            pm_bit_select%xi1/xi1/net7
                                                                 1.00 
       80 x1.x_pm_bit_select%xi1/xi1/xi7/net7.
                                            pm_bit_select%xi1/xi1/xi7/net7
                                                                 1.00 
       81 x1.x_pm_bit_select%xi1/xi6/net11.
                                            pm_bit_select%xi1/xi6/net11
                                                                 1.00 
       82 x1.x_pm_bit_select%xi1/xi6/net14.
                                            pm_bit_select%xi1/xi6/net14
                                                                 1.00 
       83 x1.x_pm_bit_select%xi1/xi6/net7.
                                            pm_bit_select%xi1/xi6/net7
                                                                 1.00 
       84 x1.x_pm_bit_select%xi1/xi6/xi7/net7.
                                            pm_bit_select%xi1/xi6/xi7/net7
                                                                 1.00 
       85 x1.x_pm_bit_select%xi1/xi7/net11.
                                            pm_bit_select%xi1/xi7/net11
                                                                 1.00 
       86 x1.x_pm_bit_select%xi1/xi7/net14.
                                            pm_bit_select%xi1/xi7/net14
                                                                 1.00 
       87 x1.x_pm_bit_select%xi1/xi7/net7.
                                            pm_bit_select%xi1/xi7/net7
                                                                 1.00 
       88 x1.x_pm_bit_select%xi1/xi7/xi7/net7.
                                            pm_bit_select%xi1/xi7/xi7/net7
                                                                 1.00 
       89 x1.x_pm_bit_select%xi1/xi2/net11.
                                            pm_bit_select%xi1/xi2/net11
                                                                 1.00 
       90 x1.x_pm_bit_select%xi1/xi2/net14.
                                            pm_bit_select%xi1/xi2/net14
                                                                 1.00 
       91 x1.x_pm_bit_select%xi1/xi2/net7.
                                            pm_bit_select%xi1/xi2/net7
                                                                 1.00 
       92 x1.x_pm_bit_select%xi1/xi2/xi7/net7.
                                            pm_bit_select%xi1/xi2/xi7/net7
                                                                 1.00 
       93 x1.x_pm_bit_select%xi1/xi3/net11.
                                            pm_bit_select%xi1/xi3/net11
                                                                 1.00 
       94 x1.x_pm_bit_select%xi1/xi3/net14.
                                            pm_bit_select%xi1/xi3/net14
                                                                 1.00 
       95 x1.x_pm_bit_select%xi1/xi3/net7.
                                            pm_bit_select%xi1/xi3/net7
                                                                 1.00 
       96 x1.x_pm_bit_select%xi1/xi3/xi7/net7.
                                            pm_bit_select%xi1/xi3/xi7/net7
                                                                 1.00 
       97 x1.x_pm_bit_select%b<0>.        pm_bit_select%b<0>
                                                                 1.00 
       98 x1.x_pm_bit_select%xi3/net5.    pm_bit_select%xi3/net5
                                                                 1.00 
       99 x1.x_pm_bit_select%xi3/net6.    pm_bit_select%xi3/net6
                                                                 1.00 
      100 x1.x_pm_bit_select%xi3/net7.    pm_bit_select%xi3/net7
                                                                 1.00 
      101 x1.x_pm_bit_select%vdd!.        pm_bit_select%vdd!
                                                                 1.00 
      102 x1.x_pm_bit_select%init.        pm_bit_select%init
                                                                 1.00 
      103 x1.x_pm_bit_select%gnd!.        pm_bit_select%gnd!
                                                                 1.00 
      104 x1.x_pm_bit_select%xi1/net028.  pm_bit_select%xi1/net028
                                                                 1.00 
      105 x1.x_pm_bit_select%xi1/net45.   pm_bit_select%xi1/net45
                                                                 1.00 
      106 x1.x_pm_bit_select%xi1/net24.   pm_bit_select%xi1/net24
                                                                 1.00 
      107 x1.x_pm_bit_select%xi1/net44.   pm_bit_select%xi1/net44
                                                                 1.00 
      108 x1.x_pm_bit_select%xi1/net027.  pm_bit_select%xi1/net027
                                                                 1.00 
      109 x1.x_pm_bit_select%xi1/net40.   pm_bit_select%xi1/net40
                                                                 1.00 
      110 x1.x_pm_bit_select%xi1/net19.   pm_bit_select%xi1/net19
                                                                 1.00 
      111 x1.x_pm_bit_select%xi1/net018.  pm_bit_select%xi1/net018
                                                                 1.00 
      112 x1.x_pm_bit_select%xi1/net026.  pm_bit_select%xi1/net026
                                                                 1.00 
      113 x1.x_pm_bit_select%xi1/net35.   pm_bit_select%xi1/net35
                                                                 1.00 
      114 x1.x_pm_bit_select%xi1/net14.   pm_bit_select%xi1/net14
                                                                 1.00 
      115 x1.x_pm_bit_select%xi1/net34.   pm_bit_select%xi1/net34
                                                                 1.00 
      116 x1.x_pm_bit_select%xi1/net025.  pm_bit_select%xi1/net025
                                                                 1.00 
      117 x1.x_pm_bit_select%xi1/net30.   pm_bit_select%xi1/net30
                                                                 1.00 
      118 x1.x_pm_bit_select%xi1/net9.    pm_bit_select%xi1/net9
                                                                 1.00 
      119 x1.x_pm_bit_select%xi1/net29.   pm_bit_select%xi1/net29
                                                                 1.00 
      120 x1.x_pm_bit_select%a<0>.        pm_bit_select%a<0>
                                                                 1.00 
      121 x1.x_pm_bit_select%s<4>.        pm_bit_select%s<4>
                                                                 1.00 
      122 x1.x_pm_bit_select%s<5>.        pm_bit_select%s<5>
                                                                 1.00 
      123 x1.x_pm_bit_select%s<6>.        pm_bit_select%s<6>
                                                                 1.00 
      124 x1.x_pm_bit_select%s<7>.        pm_bit_select%s<7>
                                                                 1.00 
      125 x1.x_pm_bit_select%cout.        pm_bit_select%cout
                                                                 1.00 
      126 x1.x_pm_bit_select%s<0>.        pm_bit_select%s<0>
                                                                 1.00 
      127 x1.x_pm_bit_select%s<3>.        pm_bit_select%s<3>
                                                                 1.00 
      128 x1.x_pm_bit_select%s<1>.        pm_bit_select%s<1>
                                                                 1.00 
      129 x1.x_pm_bit_select%s<2>.        pm_bit_select%s<2>
                                                                 1.00 
      130 x1.x_pm_bit_select%b<4>.        pm_bit_select%b<4>
                                                                 1.00 
      131 x1.x_pm_bit_select%a<4>.        pm_bit_select%a<4>
                                                                 1.00 
      132 x1.x_pm_bit_select%b<5>.        pm_bit_select%b<5>
                                                                 1.00 
      133 x1.x_pm_bit_select%a<5>.        pm_bit_select%a<5>
                                                                 1.00 
      134 x1.x_pm_bit_select%b<6>.        pm_bit_select%b<6>
                                                                 1.00 
      135 x1.x_pm_bit_select%a<6>.        pm_bit_select%a<6>
                                                                 1.00 
      136 x1.x_pm_bit_select%b<7>.        pm_bit_select%b<7>
                                                                 1.00 
      137 x1.x_pm_bit_select%a<7>.        pm_bit_select%a<7>
                                                                 1.00 
      138 x1.x_pm_bit_select%b<3>.        pm_bit_select%b<3>
                                                                 1.00 
      139 x1.x_pm_bit_select%a<3>.        pm_bit_select%a<3>
                                                                 1.00 
      140 x1.x_pm_bit_select%b<1>.        pm_bit_select%b<1>
                                                                 1.00 
      141 x1.x_pm_bit_select%a<1>.        pm_bit_select%a<1>
                                                                 1.00 
      142 x1.x_pm_bit_select%b<2>.        pm_bit_select%b<2>
                                                                 1.00 
      143 x1.x_pm_bit_select%a<2>.        pm_bit_select%a<2>
                                                                 1.00 
1****** HSPICE -- D-2010.03-SP2 32-BIT (Aug 26 2010) linux ******               
 ******  
 .include

  ******  mos   model parameters tnom=  25.000 temp=  25.000 *****
 
Model Name: nmos_vtg  

 BSIM4 Model (Level 54)

    MOBMOD = 0
    BINUNIT = 1
    PARAMCHK = 1
    CAPMOD = 2
    DIOMOD = 1
    RDSMOD = 0
    TRNQSMOD = 0
    ACNQSMOD = 0
    RBODYMOD = 1
    RGATEMOD = 1
    PERMOD = 1
    GEOMOD = 1
    RGEOMOD = 0
    FNOIMOD = 1
    TNOIMOD = 0
    IGCMOD = 1
    IGBMOD = 1
    STIMOD = 0
    VERSION =      4 
    TOXREF = 1.14e-09 
    TOXE = 1.14e-09 
    TOXP =  1e-09 
    TOXM = 1.14e-09 
    DTOX = 1.4e-10 
    EPSROX =    3.9 
    CDSC =      0 
    CDSCB =      0 
    CDSCD =      0 
    CIT =      0 
    NFACTOR =    2.1 
    XJ = 1.98e-08 
    VSAT = 1.23e+05 
    A0 =      1 
    AGS =      0 
    A1 =      0 
    A2 =      1 
    AT = 3.3e+04 
    KETA =   0.04 
    NSUB =  6e+16 
    NDEP = 3.4e+18 
    NSD =  2e+20 
    NGATE =  3e+20 
    GAMMA1 =      0 
    GAMMA2 =      0 
    VBX =      0 
    VBM =     -3 
    XT = 1.55e-07 
    K1 =    0.4 
    KT1 =  -0.11 
    KT1L =      0 
    KT2 =  0.022 
    K2 =      0 
    K3 =      0 
    K3B =      0 
    LPE0 =      0 
    LPEB =      0 
    DVTP0 =  1e-10 
    DVTP1 =    0.1 
    W0 = 2.5e-06 
    DVT0 =      1 
    DVT1 =      2 
    DVT2 =      0 
    DVT0W =      0 
    DVT1W =      0 
    DVT2W =      0 
    DROUT =    0.5 
    DSUB =    0.1 
    VTH0 = 0.4106 
    EU =   1.67 
    UA =  6e-10 
    UA1 = 4.31e-09 
    UB = 1.2e-18 
    UB1 = 7.61e-18 
    UC =      0 
    UC1 = -5.6e-11 
    U0 =  0.045 
    UTE =   -1.5 
    VOFF =  -0.13 
    VOFFL =      0 
    MINV =   0.05 
    FPROUT =    0.2 
    PDITS =   0.08 
    PDITSD =   0.23 
    PDITSL = 2.3e+06 
    DELTA =   0.01 
    RDSW =    155 
    RDSWMIN =      0 
    RDWMIN =      0 
    RSWMIN =      0 
    RDW =     80 
    RSW =     80 
    PRWG =      0 
    PRWB =      0 
    PRT =      0 
    ETA0 =  0.006 
    ETAB =      0 
    PCLM =   0.02 
    PDIBLC1 =  0.001 
    PDIBLC2 =  0.001 
    PDIBLCB = -0.005 
    PSCBE1 = 8.14e+08 
    PSCBE2 =  1e-07 
    PVAG =  1e-20 
    WR =      1 
    DWG =      0 
    DWB =      0 
    XW =      0 
    XWREF =      0 
    XL = -2e-08 
    XLREF = -2e-08 
    B0 =      0 
    B1 =      0 
    ALPHA0 =  0.074 
    ALPHA1 =  0.005 
    AGIDL = 0.0002 
    BGIDL = 2.1e+09 
    CGIDL = 0.0002 
    PHIN =      0 
    EGIDL =    0.8 
    AIGC =   0.02 
    BIGC = 0.0027 
    CIGC =  0.002 
    AIGSD =   0.02 
    BIGSD = 0.0027 
    CIGSD =  0.002 
    AIGBACC =  0.012 
    BIGBACC = 0.0028 
    CIGBACC =  0.002 
    AIGBINV =  0.014 
    BIGBINV =  0.004 
    CIGBINV =  0.004 
    NIGC =      1 
    NIGBINV =      3 
    NIGBACC =      1 
    NTOX =      1 
    EIGBINV =    1.1 
    PIGCD =      1 
    POXEDGE =      1 
    XRCRG1 =     12 
    TNOIA =    1.5 
    TNOIB =    3.5 
    NTNOI =      1 
    XRCRG2 =      5 
    BETA0 =     30 
    IJTHDFWD =   0.01 
    IJTHSFWD =   0.01 
    IJTHDREV =  0.001 
    IJTHSREV =  0.001 
    XJBVD =      1 
    XJBVS =      1 
    BVD =     10 
    BVS =     10 
    VFB =  -0.55 
    GBMIN =  1e-10 
    RBDB =     15 
    RBPB =      5 
    RBSB =     15 
    RBPS =     15 
    RBPD =     15 
    CGSL = 2.653e-10 
    CGDL = 2.653e-10 
    CKAPPAS =   0.03 
    CKAPPAD =   0.03 
    CF = 1.289e-10 
    CLC =  1e-07 
    CLE =    0.6 
    DWC =  5e-09 
    DLC = 3.75e-09 
    DLCIG = 3.75e-09 
    DWJ =      0 
    VFBCV =     -1 
    ACDE =      1 
    MOIN =     15 
    NOFF =    0.9 
    VOFFCV =   0.02 
    DMCG =      0 
    DMCI =      0 
    DMDG =      0 
    DMCGT =      0 
    XGW =      0 
    XGL =      0 
    RSHG =    0.4 
    NGCON =      1 
    TCJ =  0.001 
    TPB =  0.005 
    TCJSW =  0.001 
    TPBSW =  0.005 
    TCJSWG =  0.001 
    TPBSWG =  0.005 
    SK0 =      0 
    SK1 =      0 
    SK2 =      0 
    SL =  2e-06 
    SW =  2e-06 
    K =      0 
    TNOM =  300.1 
    CGSO = 1.1e-10 
    CGDO = 1.1e-10 
    CGBO = 2.56e-11 
    XPART =      0 
    RSH =      5 
    JSS = 0.0001 
    JSWS =  1e-11 
    JSWGS =  1e-10 
    PBS =      1 
    MJS =    0.5 
    PBSWS =      1 
    MJSWS =   0.33 
    CJS = 0.0005 
    CJSWS =  5e-10 
    NJS =      1 
    PBSWGS =      1 
    MJSWGS =   0.33 
    CJSWGS =  3e-10 
    XTIS =      3 
    JSD = 0.0001 
    JSWD =  1e-11 
    JSWGD =  1e-10 
    PBD =      1 
    MJD =    0.5 
    PBSWD =      1 
    MJSWD =   0.33 
    CJD = 0.0005 
    CJSWD =  5e-10 
    NJD =      1 
    PBSWGD =      1 
    MJSWGD =   0.33 
    CJSWGD =  5e-10 
    XTID =      3 
    LMLT =      1 
    WMLT =      1 
    LINT = 3.75e-09 
    LL =      0 
    LLC =      0 
    LLN =      1 
    LW =      0 
    LWC =      0 
    LWN =      1 
    LWL =      0 
    LWLC =      0 
    LMIN =      0 
    LMAX =      1 
    WINT =  5e-09 
    WL =      0 
    WLC =      0 
    WLN =      1 
    WW =      0 
    WWC =      0 
    WWN =      1 
    WWL =      0 
    WWLC =      0 
    WMIN =      0 
    WMAX =      1 
    NOIA = 6.25e+41 
    NOIB = 3.125e+26 
    NOIC = 8.75e+09 
    EM = 4.1e+07 
    EF =      1 
    AF =      1 
    KF =      0 
    TRS =      0 
    TRD =      0 
 

 
Model Name: pmos_vtg  

 BSIM4 Model (Level 54)

    MOBMOD = 0
    BINUNIT = 1
    PARAMCHK = 1
    CAPMOD = 2
    DIOMOD = 1
    RDSMOD = 0
    TRNQSMOD = 0
    ACNQSMOD = 0
    RBODYMOD = 1
    RGATEMOD = 1
    PERMOD = 1
    GEOMOD = 1
    RGEOMOD = 0
    FNOIMOD = 1
    TNOIMOD = 0
    IGCMOD = 1
    IGBMOD = 1
    STIMOD = 0
    VERSION =      4 
    TOXREF = 1.3e-09 
    TOXE = 1.26e-09 
    TOXP =  1e-09 
    TOXM = 1.26e-09 
    DTOX = 2.6e-10 
    EPSROX =    3.9 
    CDSC =      0 
    CDSCB =      0 
    CDSCD =      0 
    CIT =      0 
    NFACTOR =   2.22 
    XJ = 1.98e-08 
    VSAT = 6.2e+04 
    A0 =      1 
    AGS =  1e-20 
    A1 =      0 
    A2 =      1 
    AT = 3.3e+04 
    KETA = -0.047 
    NSUB =  6e+16 
    NDEP = 2.44e+18 
    NSD =  2e+20 
    NGATE =  2e+20 
    GAMMA1 =      0 
    GAMMA2 =      0 
    VBX =      0 
    VBM =     -3 
    XT = 1.55e-07 
    K1 =    0.4 
    KT1 =  -0.11 
    KT1L =      0 
    KT2 =  0.022 
    K2 =  -0.01 
    K3 =      0 
    K3B =      0 
    LPE0 =      0 
    LPEB =      0 
    DVTP0 =  1e-11 
    DVTP1 =   0.05 
    W0 = 2.5e-06 
    DVT0 =      1 
    DVT1 =      2 
    DVT2 = -0.032 
    DVT0W =      0 
    DVT1W =      0 
    DVT2W =      0 
    DROUT =   0.56 
    DSUB =    0.1 
    VTH0 = -0.3842 
    EU =      1 
    UA =  2e-09 
    UA1 = 4.31e-09 
    UB =  5e-19 
    UB1 = 7.61e-18 
    UC =      0 
    UC1 = -5.6e-11 
    U0 =   0.02 
    UTE =   -1.5 
    VOFF = -0.126 
    VOFFL =      0 
    MINV =   0.05 
    FPROUT =    0.2 
    PDITS =   0.08 
    PDITSD =   0.23 
    PDITSL = 2.3e+06 
    DELTA =   0.01 
    RDSW =    155 
    RDSWMIN =      0 
    RDWMIN =      0 
    RSWMIN =      0 
    RDW =     75 
    RSW =     75 
    PRWG =      0 
    PRWB =      0 
    PRT =      0 
    ETA0 = 0.0055 
    ETAB =      0 
    PCLM =   0.12 
    PDIBLC1 =  0.001 
    PDIBLC2 =  0.001 
    PDIBLCB = 3.4e-08 
    PSCBE1 = 8.14e+08 
    PSCBE2 = 9.58e-07 
    PVAG =  1e-20 
    WR =      1 
    DWG =      0 
    DWB =      0 
    XW =      0 
    XWREF =      0 
    XL = -2e-08 
    XLREF = -2e-08 
    B0 =      0 
    B1 =      0 
    ALPHA0 =  0.074 
    ALPHA1 =  0.005 
    AGIDL = 0.0002 
    BGIDL = 2.1e+09 
    CGIDL = 0.0002 
    PHIN =      0 
    EGIDL =    0.8 
    AIGC = 0.01069 
    BIGC = 0.001261 
    CIGC = 0.0008 
    AIGSD = 0.01069 
    BIGSD = 0.001261 
    CIGSD = 0.0008 
    AIGBACC =  0.012 
    BIGBACC = 0.0028 
    CIGBACC =  0.002 
    AIGBINV =  0.014 
    BIGBINV =  0.004 
    CIGBINV =  0.004 
    NIGC =      1 
    NIGBINV =      3 
    NIGBACC =      1 
    NTOX =      1 
    EIGBINV =    1.1 
    PIGCD =      1 
    POXEDGE =      1 
    XRCRG1 =     12 
    TNOIA =    1.5 
    TNOIB =    3.5 
    NTNOI =      1 
    XRCRG2 =      5 
    BETA0 =     30 
    IJTHDFWD =   0.01 
    IJTHSFWD =   0.01 
    IJTHDREV =  0.001 
    IJTHSREV =  0.001 
    XJBVD =      1 
    XJBVS =      1 
    BVD =     10 
    BVS =     10 
    VFB =   0.55 
    GBMIN =  1e-10 
    RBDB =     15 
    RBPB =      5 
    RBSB =     15 
    RBPS =     15 
    RBPD =     15 
    CGSL = 2.653e-10 
    CGDL = 2.653e-10 
    CKAPPAS =   0.03 
    CKAPPAD =   0.03 
    CF = 1.267e-10 
    CLC =  1e-07 
    CLE =    0.6 
    DWC =  5e-09 
    DLC = 3.75e-09 
    DLCIG = 3.75e-09 
    DWJ =      0 
    VFBCV =     -1 
    ACDE =      1 
    MOIN =     15 
    NOFF =    0.9 
    VOFFCV =   0.02 
    DMCG =      0 
    DMCI =      0 
    DMDG =      0 
    DMCGT =      0 
    XGW =      0 
    XGL =      0 
    RSHG =    0.4 
    NGCON =      1 
    TCJ =  0.001 
    TPB =  0.005 
    TCJSW =  0.001 
    TPBSW =  0.005 
    TCJSWG =  0.001 
    TPBSWG =  0.005 
    SK0 =      0 
    SK1 =      0 
    SK2 =      0 
    SL =  2e-06 
    SW =  2e-06 
    K =      0 
    TNOM =  300.1 
    CGSO = 1.1e-10 
    CGDO = 1.1e-10 
    CGBO = 2.56e-11 
    XPART =      0 
    RSH =      5 
    JSS = 0.0001 
    JSWS =  1e-11 
    JSWGS =  1e-10 
    PBS =      1 
    MJS =    0.5 
    PBSWS =      1 
    MJSWS =   0.33 
    CJS = 0.0005 
    CJSWS =  5e-10 
    NJS =      1 
    PBSWGS =      1 
    MJSWGS =   0.33 
    CJSWGS =  3e-10 
    XTIS =      3 
    JSD = 0.0001 
    JSWD =  1e-11 
    JSWGD =  1e-10 
    PBD =      1 
    MJD =    0.5 
    PBSWD =      1 
    MJSWD =   0.33 
    CJD = 0.0005 
    CJSWD =  5e-10 
    NJD =      1 
    PBSWGD =      1 
    MJSWGD =   0.33 
    CJSWGD =  5e-10 
    XTID =      3 
    LMLT =      1 
    WMLT =      1 
    LINT = 3.75e-09 
    LL =      0 
    LLC =      0 
    LLN =      1 
    LW =      0 
    LWC =      0 
    LWN =      1 
    LWL =      0 
    LWLC =      0 
    LMIN =      0 
    LMAX =      1 
    WINT =  5e-09 
    WL =      0 
    WLC =      0 
    WLN =      1 
    WW =      0 
    WWC =      0 
    WWN =      1 
    WWL =      0 
    WWLC =      0 
    WMIN =      0 
    WMAX =      1 
    NOIA = 6.188e+40 
    NOIB = 1.5e+25 
    NOIC = 8.75e+09 
    EM = 4.1e+07 
    EF =      1 
    AF =      1 
    KF =      0 
    TRS =      0 
    TRD =      0 
 

  **info** (/home/sjz474/simulation/BIT_SELECT/hspiceD/schematic/netlist/_graphical_stimuli.scs:1) DC voltage reset to initial transient source value              in source        0:vb<0>               new dc=  0.1800D+01
 Warning:  Acde = 1 may be too small in BSIM4 model nmos_vtg with w=1.44e-06 l=5e-08.

 Warning:  Acde = 1 may be too small in BSIM4 model nmos_vtg with w=2.8e-07 l=5e-08.

 Warning:  Acde = 1 may be too small in BSIM4 model nmos_vtg with w=1.63e-06 l=5e-08.

 Warning:  Acde = 1 may be too small in BSIM4 model nmos_vtg with w=1.63e-06 l=5e-08.

 Warning:  Acde = 1 may be too small in BSIM4 model nmos_vtg with w=7.2e-07 l=5e-08.

 Warning:  Acde = 1 may be too small in BSIM4 model nmos_vtg with w=7.2e-07 l=5e-08.

 Warning:  Acde = 1 may be too small in BSIM4 model pmos_vtg with w=1.96e-06 l=5e-08.

 Warning:  Acde = 1 may be too small in BSIM4 model pmos_vtg with w=3e-07 l=5e-08.

 Warning:  Acde = 1 may be too small in BSIM4 model pmos_vtg with w=1.44e-06 l=5e-08.

 Warning:  Acde = 1 may be too small in BSIM4 model pmos_vtg with w=1.44e-06 l=5e-08.

 Warning:  Acde = 1 may be too small in BSIM4 model pmos_vtg with w=1.56e-06 l=5e-08.

 Warning:  Acde = 1 may be too small in BSIM4 model pmos_vtg with w=1.56e-06 l=5e-08.

 
  **warning** (BIT_SELECT.pex.netlist.pex:11500) Only 1 connection at node s<4> called in element x1.x_pm_bit_select%s<4>.r36.
      
 *****************************************************************
 ******  option summary
 ******
 runlvl  = 3         bypass  = 2         
  Opening plot unit= 15
 file=BIT_SELECT_layout.pa0                                                    


 **info** dc convergence failure, 
 resetting dcon option to 1 and retrying

 no convergence with standard algorithm,  trying damped pseudo-transient

  *** initial damped pseudo transient completed. ***
  *** final try started ***
  *** final try succeeded *** 
1****** HSPICE -- D-2010.03-SP2 32-BIT (Aug 26 2010) linux ******               
 ******  
 .include

  ******  operating point information tnom=  25.000 temp=  25.000 *****
 ***** operating point status is all       simulation time is     0.     
      node    =voltage        node    =voltage        node    =voltage

 +  0:a<0>    =   1.8000    0:a<1>    =   0.        0:a<2>    =   1.8000 
 +  0:a<3>    =   0.        0:a<4>    =   1.8000    0:a<5>    =   1.8000 
 +  0:a<6>    =   0.        0:a<7>    =   0.        0:b<0>    =   1.8000 
 +  0:b<1>    =   1.8000    0:b<2>    =   0.        0:b<3>    =   1.8000 
 +  0:b<4>    =   0.        0:b<5>    =   1.8000    0:b<6>    =   1.8000 
 +  0:b<7>    =   0.        0:cout    =  15.8437m   0:init    = 900.0000m
 +  0:s<0>    =  34.0172m   0:s<1>    =  55.9479m   0:s<2>    =  47.5685m
 +  0:s<3>    =  54.7129m   0:s<4>    = 393.9648m   0:s<5>    =   1.3254 
 +  0:s<6>    =  63.2936m   0:s<7>    =   1.5012    0:vdd!    =   1.8000 
 +  1:n_xi3/ne=   1.5372    1:n_xi3/xi=  14.8362m   1:n_vdd!_x=   1.5378 
 +  1:n_xi3/xi=  32.4375m   1:n_xi3/xi=   1.7590    1:n_gnd!_x=  15.2062m
 +  1:n_s<2>_x=  47.5685m   1:n_xi3/ne=   1.5353    1:n_xi3/xi=  32.4376m
 +  1:n_xi3/ne=   1.5352    1:n_xi3/xi=  32.4454m   1:n_xi3/xi=   1.7590 
 +  1:n_vdd!_x=   1.5364    1:n_s<2>_x=  47.5816m   1:n_xi3/ne=   1.5353 
 +  1:n_xi3/xi=   1.7590    1:n_xi3/xi=   1.7591    1:n_xi3/ne=   1.5352 
 +  1:n_xi3/xi=  20.0609m   1:n_a<2>_x=   1.7964    1:n_gnd!_x=  16.1697m
 +  1:n_xi3/xi=   1.7622    1:n_b<2>_x=  83.5701u   1:n_xi3/xi=  20.0612m
 +  1:n_b<2>_x= 594.0585u   1:n_xi3/xi=  20.0738m   1:n_a<2>_x=   1.7965 
 +  1:n_vdd!_x=   1.5364    1:n_xi3/xi=   1.7623    1:n_b<2>_x=  83.3500u
 +  1:n_a<2>_x=   1.7965    1:n_a<2>_x=   1.7966    1:n_b<2>_x= 603.7274u
 +  1:n_xi3/xi=   1.7601    1:n_gnd!_x=  14.9925m   1:n_xi3/xi=  19.8862m
 +  1:n_xi3/ne=   1.5352    1:n_xi3/xi=  20.0748m   1:n_xi3/xi=   1.7603 
 +  1:n_vdd!_x=   1.5372    1:n_xi3/ne=   1.5352    1:n_vdd!_x=   1.5374 
 +  1:n_xi3/xi=   1.5371    1:n_xi3/xi=  19.9640m   1:n_gnd!_x=  14.6062m
 +  1:n_xi3/xi=   1.5371    1:n_xi3/xi=  20.0287m   1:n_vdd!_x=   1.5376 
 +  1:n_a<2>_x=   1.7994    1:n_gnd!_x=  14.6286m   1:n_xi3/xi=   1.5366 
 +  1:n_b<2>_x=  70.5803u   1:n_xi3/xi=   1.5366    1:n_a<2>_x=   1.7996 
 +  1:n_vdd!_x=   1.5376    1:n_b<2>_x= 111.8205u   1:n_vdd!_x=   1.5376 
 +  1:n_xi3/xi=  14.8175m   1:n_xi3/xi=   1.5365    1:n_gnd!_x=  14.5867m
 +  1:n_xi3/xi=  14.8217m   1:n_xi3/xi=   1.5365    1:n_vdd!_x=   1.5377 
 +  1:n_xi1/xi=  15.3531m   1:n_xi1/xi=   1.5287    1:n_gnd!_x=  15.2117m
 +  1:n_xi1/xi=  15.3542m   1:n_xi1/xi=  14.7703m   1:n_xi1/xi=   1.5287 
 +  1:n_vdd!_x=   1.5272    1:n_vdd!_x=   1.5285    1:n_xi1/xi=  15.3552m
 +  1:n_xi1/xi=  14.7704m   1:n_xi1/ne=   1.5181    1:n_xi1/xi=  15.3912m
 +  1:n_gnd!_x=  14.9503m   1:n_xi1/ne=   1.5183    1:n_xi1/xi=  15.4538m
 +  1:n_vdd!_x=   1.5277    1:n_xi1/xi=  93.3700m   1:n_xi1/xi=   1.7629 
 +  1:n_gnd!_x=   5.8042m   1:n_xi1/ne= 184.5239m   1:n_vdd!_x=   1.5353 
 +  1:n_xi1/xi=  93.3701m   1:n_vdd!_x=   1.5353    1:n_xi1/xi=  93.3742m
 +  1:n_xi1/xi=   1.7629    1:n_vdd!_x=   1.5354    1:n_xi1/ne= 184.5321m
 +  1:n_vdd!_x=   1.5353    1:n_xi1/xi=   1.7629    1:n_xi1/xi=   1.7629 
 +  1:n_vdd!_x=   1.5353    1:n_xi1/xi=  11.0831m   1:n_a<4>_x=   1.7966 
 +  1:n_gnd!_x=   6.8529m   1:n_xi1/xi=   1.7653    1:n_b<4>_x= 106.3522u
 +  1:n_xi1/xi=  11.0834m   1:n_b<4>_x= 619.4575u   1:n_xi1/xi=  11.0972m
 +  1:n_a<4>_x=   1.7966    1:n_vdd!_x=   1.5354    1:n_xi1/xi=   1.7653 
 +  1:n_b<4>_x= 106.1297u   1:n_a<4>_x=   1.7966    1:n_a<4>_x=   1.7967 
 +  1:n_b<4>_x= 629.1600u   1:n_xi1/xi=   1.7635    1:n_gnd!_x=   8.8405m
 +  1:n_xi1/xi=  14.1750m   1:n_vdd!_x=   1.5352    1:n_xi1/xi=  14.3813m
 +  1:n_xi1/xi=   1.7637    1:n_vdd!_x=   1.5325    1:n_vdd!_x=   1.5352 
 +  1:n_vdd!_x=   1.5311    1:n_xi1/xi=   1.5288    1:n_xi1/xi=  14.2558m
 +  1:n_gnd!_x=  14.1191m   1:n_xi1/xi=   1.5288    1:n_xi1/xi=  14.3192m
 +  1:n_vdd!_x=   1.5293    1:n_a<4>_x=   1.7992    1:n_gnd!_x=  13.9280m
 +  1:n_xi1/xi=   1.5279    1:n_b<4>_x= 102.6991u   1:n_xi1/xi=   1.5279 
 +  1:n_a<4>_x=   1.7995    1:n_vdd!_x=   1.5293    1:n_b<4>_x= 141.3845u
 +  1:n_vdd!_x=   1.5288    1:n_xi1/xi=  14.7697m   1:n_xi1/xi=   1.5278 
 +  1:n_gnd!_x=  14.5678m   1:n_xi1/xi=  14.7734m   1:n_xi1/xi=   1.5279 
 +  1:n_vdd!_x=   1.5285    1:n_xi1/xi=  15.8526m   1:n_xi1/xi=  15.0704m
 +  1:n_gnd!_x=  15.4868m   1:n_xi1/xi=  15.8522m   1:n_xi1/xi=   1.5134 
 +  1:n_xi1/xi=  15.1069m   1:n_vdd!_x=   1.5125    1:n_vdd!_x=   1.5137 
 +  1:n_xi1/xi=  15.8587m   1:n_xi1/xi=   1.5134    1:n_xi1/ne=   1.5126 
 +  1:n_xi1/xi=  15.8874m   1:n_gnd!_x=  15.0141m   1:n_xi1/ne=   1.5126 
 +  1:n_xi1/xi=  15.9432m   1:n_vdd!_x=   1.5130    1:n_xi1/xi=   1.5238 
 +  1:n_xi1/xi=  37.2501m   1:n_gnd!_x=  15.6670m   1:n_xi1/ne=   1.4426 
 +  1:n_xi1/ne=   1.5123    1:n_xi1/xi=   1.5238    1:n_xi1/ne=   1.5067 
 +  1:n_xi1/xi=   1.5238    1:n_xi1/xi=  37.2500m   1:n_vdd!_x=   1.5241 
 +  1:n_xi1/ne=   1.4426    1:n_xi1/ne=   1.5123    1:n_xi1/xi=  37.2441m
 +  1:n_xi1/xi=  37.2491m   1:n_xi1/ne=   1.5066    1:n_xi1/xi=  29.6525m
 +  1:n_a<5>_x=   1.7999    1:n_gnd!_x=  18.4307m   1:n_xi1/xi=  37.1843m
 +  1:n_b<5>_x=   1.7998    1:n_xi1/xi=  29.6529m   1:n_b<5>_x=   1.7989 
 +  1:n_xi1/xi=  29.6647m   1:n_a<5>_x=   1.7999    1:n_vdd!_x=   1.5241 
 +  1:n_xi1/xi=  37.1906m   1:n_b<5>_x=   1.7999    1:n_a<5>_x=   1.7999 
 +  1:n_a<5>_x=   1.7999    1:n_b<5>_x=   1.7989    1:n_xi1/xi=  37.2691m
 +  1:n_gnd!_x=  15.5514m   1:n_xi1/xi=   1.5174    1:n_xi1/ne=   1.5123 
 +  1:n_xi1/xi=   1.5174    1:n_xi1/xi=  37.2968m   1:n_vdd!_x=   1.5175 
 +  1:n_xi1/ne=   1.5123    1:n_vdd!_x=   1.5162    1:n_xi1/xi=  14.9872m
 +  1:n_xi1/xi=   1.5174    1:n_gnd!_x=  14.7728m   1:n_xi1/xi=  14.9906m
 +  1:n_xi1/xi=   1.5174    1:n_vdd!_x=   1.5144    1:n_a<5>_x=   1.7994 
 +  1:n_gnd!_x=  15.3796m   1:n_xi1/xi=  27.6003m   1:n_b<5>_x=   1.7993 
 +  1:n_xi1/xi=  28.0816m   1:n_a<5>_x=   1.7996    1:n_vdd!_x=   1.5145 
 +  1:n_b<5>_x=   1.7996    1:n_vdd!_x=   1.5141    1:n_xi1/xi=   1.5134 
 +  1:n_xi1/xi=  27.7314m   1:n_gnd!_x=  14.7649m   1:n_xi1/xi=   1.5134 
 +  1:n_xi1/xi=  27.7828m   1:n_vdd!_x=   1.5137    1:n_xi1/xi=   1.5360 
 +  1:n_xi1/xi=  12.5924m   1:n_gnd!_x=  12.3664m   1:n_gnd!_x=  12.4034m
 +  1:n_xi1/xi=   1.5360    1:n_xi1/xi=  12.7510m   1:n_xi1/xi=  12.6367m
 +  1:n_vdd!_x=   1.5375    1:n_xi1/xi=   1.5360    1:n_xi1/xi=  12.7951m
 +  1:n_xi1/ne=  21.7544m   1:n_xi1/xi=   1.5359    1:n_gnd!_x=  12.4701m
 +  1:n_xi1/ne=  21.7641m   1:n_xi1/xi=   1.5360    1:n_vdd!_x=   1.5386 
 +  1:n_xi1/xi=   9.3752m   1:n_xi1/xi=   1.6644    1:n_gnd!_x=   8.2837m
 +  1:n_xi1/ne=   1.5643    1:n_gnd!_x=   9.1197m   1:n_xi1/xi=   9.3754m
 +  1:n_gnd!_x=   9.2178m   1:n_xi1/xi=   9.3788m   1:n_xi1/xi=   1.6644 
 +  1:n_vdd!_x=   1.5625    1:n_xi1/ne=   1.5643    1:n_gnd!_x=   9.1196m
 +  1:n_xi1/xi=   1.6644    1:n_xi1/xi=   1.6647    1:n_gnd!_x=   9.2200m
 +  1:n_xi1/xi=  13.1401m   1:n_a<4>_x=   1.7896    1:n_gnd!_x=   9.2479m
 +  1:n_xi1/xi=   1.6828    1:n_b<4>_x=  80.8971u   1:n_xi1/xi=  13.1403m
 +  1:n_b<4>_x= 552.3362u   1:n_xi1/xi=  13.1530m   1:n_a<4>_x=   1.7896 
 +  1:n_vdd!_x=   1.5623    1:n_xi1/xi=   1.6829    1:n_b<4>_x=  80.7295u
 +  1:n_a<4>_x=   1.7896    1:n_a<4>_x=   1.7900    1:n_b<4>_x= 561.3548u
 +  1:n_xi1/xi=   1.6733    1:n_gnd!_x=   9.7258m   1:n_xi1/xi=   1.5413 
 +  1:n_gnd!_x=   9.1519m   1:n_xi1/xi=   1.5414    1:n_xi1/xi=   1.6735 
 +  1:n_vdd!_x=   1.5437    1:n_gnd!_x=   9.1918m   1:n_vdd!_x=   1.5423 
 +  1:n_xi1/xi=  12.4892m   1:n_xi1/xi=   1.5413    1:n_gnd!_x=  12.1776m
 +  1:n_xi1/xi=  12.4944m   1:n_xi1/xi=   1.5413    1:n_vdd!_x=   1.5407 
 +  1:n_a<4>_x=   1.7992    1:n_gnd!_x=  12.0220m   1:n_xi1/xi=   1.5389 
 +  1:n_b<4>_x=  82.5391u   1:n_xi1/xi=   1.5390    1:n_a<4>_x=   1.7995 
 +  1:n_vdd!_x=   1.5405    1:n_b<4>_x= 124.4933u   1:n_vdd!_x=   1.5400 
 +  1:n_xi1/xi=  12.6512m   1:n_xi1/xi=   1.5389    1:n_gnd!_x=  12.3488m
 +  1:n_xi1/xi=  12.6559m   1:n_xi1/xi=   1.5389    1:n_vdd!_x=   1.5398 
 +  1:n_xi1/xi=  12.8698m   1:n_xi1/xi=  12.7582m   1:n_gnd!_x=  12.4742m
 +  1:n_xi1/xi=  12.8693m   1:n_xi1/xi=   1.5164    1:n_xi1/xi=  12.7962m
 +  1:n_vdd!_x=   1.5153    1:n_vdd!_x=   1.5167    1:n_xi1/xi=  12.8765m
 +  1:n_xi1/xi=   1.5164    1:n_xi1/ne=   1.5155    1:n_xi1/xi=  12.9062m
 +  1:n_gnd!_x=  12.4275m   1:n_xi1/ne=   1.5155    1:n_xi1/xi=  12.9644m
 +  1:n_vdd!_x=   1.5159    1:n_xi1/xi=   1.5307    1:n_xi1/xi=  34.5603m
 +  1:n_gnd!_x=  12.7053m   1:n_xi1/ne=  81.8161m   1:n_xi1/ne=  27.5927m
 +  1:n_xi1/xi=   1.5307    1:n_xi1/ne=  33.2411m   1:n_xi1/xi=   1.5307 
 +  1:n_xi1/xi=  34.5603m   1:n_vdd!_x=   1.5317    1:n_xi1/ne=  81.8161m
 +  1:n_xi1/ne=  27.5926m   1:n_xi1/xi=  34.5537m   1:n_xi1/xi=  34.5536m
 +  1:n_xi1/ne=  33.1794m   1:n_xi1/xi=  26.9090m   1:n_a<5>_x=   1.7999 
 +  1:n_gnd!_x=  15.5124m   1:n_xi1/xi=  34.5191m   1:n_b<5>_x=   1.7999 
 +  1:n_xi1/xi=  26.9094m   1:n_b<5>_x=   1.7989    1:n_xi1/xi=  26.9216m
 +  1:n_a<5>_x=   1.7999    1:n_vdd!_x=   1.5317    1:n_xi1/xi=  34.5256m
 +  1:n_b<5>_x=   1.7999    1:n_a<5>_x=   1.7999    1:n_a<5>_x=   1.7999 
 +  1:n_b<5>_x=   1.7989    1:n_xi1/xi=  34.5933m   1:n_gnd!_x=  12.5880m
 +  1:n_xi1/xi=   1.5201    1:n_xi1/ne=  27.6417m   1:n_xi1/xi=   1.5201 
 +  1:n_xi1/xi=  34.6225m   1:n_vdd!_x=   1.5211    1:n_xi1/ne=  27.6713m
 +  1:n_vdd!_x=   1.5196    1:n_xi1/xi=  12.6718m   1:n_xi1/xi=   1.5200 
 +  1:n_gnd!_x=  12.4417m   1:n_xi1/xi=  12.6755m   1:n_xi1/xi=   1.5200 
 +  1:n_vdd!_x=   1.5176    1:n_a<5>_x=   1.7994    1:n_gnd!_x=  12.8118m
 +  1:n_xi1/xi=  25.3015m   1:n_b<5>_x=   1.7994    1:n_xi1/xi=  25.7935m
 +  1:n_a<5>_x=   1.7996    1:n_vdd!_x=   1.5176    1:n_b<5>_x=   1.7996 
 +  1:n_vdd!_x=   1.5171    1:n_xi1/xi=   1.5164    1:n_xi1/xi=  25.4361m
 +  1:n_gnd!_x=  12.4327m   1:n_xi1/xi=   1.5164    1:n_xi1/xi=  25.4895m
 +  1:n_vdd!_x=   1.5168    1:n_xi1/xi=  15.5510m   1:n_xi1/xi=   1.5018 
 +  1:n_gnd!_x=  15.4330m   1:n_xi1/xi=  15.5519m   1:n_xi1/xi=  14.8820m
 +  1:n_xi1/xi=   1.5018    1:n_vdd!_x=   1.5008    1:n_vdd!_x=   1.5016 
 +  1:n_xi1/xi=  15.5527m   1:n_xi1/xi=  14.8821m   1:n_xi1/ne=   1.5009 
 +  1:n_xi1/xi=  15.5824m   1:n_gnd!_x=  14.9932m   1:n_xi1/ne=   1.5009 
 +  1:n_xi1/xi=  15.6337m   1:n_vdd!_x=   1.5011    1:n_xi1/xi=  40.8177m
 +  1:n_xi1/xi=   1.7658    1:n_gnd!_x=  16.1161m   1:n_xi1/ne=  63.7489m
 +  1:n_xi1/ne=   1.5125    1:n_xi1/xi=  40.8179m   1:n_xi1/ne=   1.5125 
 +  1:n_xi1/xi=  40.8256m   1:n_xi1/xi=   1.7658    1:n_vdd!_x=   1.5096 
 +  1:n_xi1/ne=  63.7687m   1:n_xi1/ne=   1.5125    1:n_xi1/xi=   1.7658 
 +  1:n_xi1/xi=   1.7659    1:n_xi1/ne=   1.5125    1:n_xi1/xi=   1.5091 
 +  1:n_a<6>_x= 680.1968u   1:n_gnd!_x=  16.1173m   1:n_xi1/xi=   1.7709 
 +  1:n_b<6>_x=   1.7999    1:n_xi1/xi=   1.5091    1:n_b<6>_x=   1.7972 
 +  1:n_xi1/xi=   1.5091    1:n_a<6>_x= 680.1062u   1:n_vdd!_x=   1.5096 
 +  1:n_xi1/xi=   1.7709    1:n_b<6>_x=   1.7999    1:n_a<6>_x= 678.2276u
 +  1:n_a<6>_x= 693.2188u   1:n_b<6>_x=   1.7972    1:n_xi1/xi=   1.7678 
 +  1:n_gnd!_x=  15.8674m   1:n_xi1/xi=  20.9562m   1:n_xi1/ne=   1.5124 
 +  1:n_xi1/xi=  21.1532m   1:n_xi1/xi=   1.7680    1:n_vdd!_x=   1.5041 
 +  1:n_xi1/ne=   1.5124    1:n_vdd!_x=   1.5032    1:n_xi1/xi=   1.5018 
 +  1:n_xi1/xi=  21.0270m   1:n_gnd!_x=  14.7742m   1:n_xi1/xi=   1.5018 
 +  1:n_xi1/xi=  21.0765m   1:n_vdd!_x=   1.5021    1:n_a<6>_x=  87.1247u
 +  1:n_gnd!_x=  15.0468m   1:n_xi1/xi=   1.5020    1:n_b<6>_x=   1.7998 
 +  1:n_xi1/xi=   1.5020    1:n_a<6>_x= 119.2924u   1:n_vdd!_x=   1.5021 
 +  1:n_b<6>_x=   1.7998    1:n_vdd!_x=   1.5018    1:n_xi1/xi=  14.8816m
 +  1:n_xi1/xi=   1.5019    1:n_gnd!_x=  14.7481m   1:n_xi1/xi=  14.8841m
 +  1:n_xi1/xi=   1.5020    1:n_vdd!_x=   1.5016    1:n_xi1/xi=   1.4954 
 +  1:n_xi1/xi=  15.0492m   1:n_gnd!_x=  16.8727m   1:n_xi1/xi=   1.4954 
 +  1:n_xi1/xi=  15.2028m   1:n_xi1/xi=  15.0815m   1:n_vdd!_x=   1.4962 
 +  1:n_vdd!_x=   1.4962    1:n_xi1/xi=   1.4954    1:n_xi1/xi=  15.2349m
 +  1:n_xi1/ne=  15.8468m   1:n_xi1/xi=   1.4954    1:n_gnd!_x=  15.7286m
 +  1:n_xi1/ne=  15.8489m   1:n_xi1/xi=   1.4954    1:n_vdd!_x=   1.4962 
 +  1:n_xi1/xi=   1.4984    1:n_xi1/xi= 589.3233u   1:n_gnd!_x=  15.5321m
 +  1:n_xi1/ne=   1.5010    1:n_xi1/ne=   1.5009    1:n_xi1/xi=   1.4984 
 +  1:n_xi1/ne=   1.5009    1:n_xi1/xi=   1.4984    1:n_xi1/xi= 589.2361u
 +  1:n_vdd!_x=   1.4988    1:n_xi1/ne=   1.5010    1:n_xi1/ne=   1.5009 
 +  1:n_xi1/xi= 582.7684u   1:n_xi1/xi= 588.7937u   1:n_xi1/ne=   1.5009 
 +  1:n_xi1/xi=   1.4979    1:n_a<7>_x=  13.8651u   1:n_gnd!_x=  15.5332m
 +  1:n_xi1/xi= 503.9576u   1:n_b<7>_x=   4.8762u   1:n_xi1/xi=   1.4979 
 +  1:n_b<7>_x=  59.5046u   1:n_xi1/xi=   1.4979    1:n_a<7>_x=  13.7778u
 +  1:n_vdd!_x=   1.4988    1:n_xi1/xi= 503.9576u   1:n_b<7>_x=   4.7890u
 +  1:n_a<7>_x=   7.1445u   1:n_a<7>_x=   6.9843u   1:n_b<7>_x=  58.9139u
 +  1:n_xi1/xi= 605.0016u   1:n_gnd!_x=  15.5320m   1:n_xi1/xi=   1.4962 
 +  1:n_xi1/ne=   1.5009    1:n_xi1/xi=   1.4962    1:n_xi1/xi= 635.9851u
 +  1:n_vdd!_x=   1.4962    1:n_xi1/ne=   1.5009    1:n_vdd!_x=   1.4962 
 +  1:n_xi1/xi=  14.9747m   1:n_xi1/xi=   1.4961    1:n_gnd!_x=  14.8124m
 +  1:n_xi1/xi=  14.9772m   1:n_xi1/xi=   1.4962    1:n_vdd!_x=   1.4962 
 +  1:n_a<7>_x=  51.8984u   1:n_gnd!_x=  15.3497m   1:n_xi1/xi=   1.4959 
 +  1:n_b<7>_x=  57.8445u   1:n_xi1/xi=   1.4959    1:n_a<7>_x=  83.3179u
 +  1:n_vdd!_x=   1.4962    1:n_b<7>_x=  88.3302u   1:n_vdd!_x=   1.4962 
 +  1:n_xi1/xi=  15.1301m   1:n_xi1/xi=   1.4959    1:n_gnd!_x=  14.9687m
 +  1:n_xi1/xi=  15.1324m   1:n_xi1/xi=   1.4959    1:n_vdd!_x=   1.4962 
 +  1:n_xi1/xi=  12.5410m   1:n_xi1/xi=   1.5028    1:n_gnd!_x=  12.4199m
 +  1:n_xi1/xi=  12.5419m   1:n_xi1/xi=  12.5560m   1:n_xi1/xi=   1.5029 
 +  1:n_vdd!_x=   1.5017    1:n_vdd!_x=   1.5026    1:n_xi1/xi=  12.5429m
 +  1:n_xi1/xi=  12.5560m   1:n_xi1/ne=   1.5018    1:n_xi1/xi=  12.5734m
 +  1:n_gnd!_x=  12.4072m   1:n_xi1/ne=   1.5018    1:n_xi1/xi=  12.6261m
 +  1:n_vdd!_x=   1.5021    1:n_xi1/xi=  38.1457m   1:n_xi1/xi=   1.7665 
 +  1:n_gnd!_x=  13.1312m   1:n_xi1/ne=  61.3018m   1:n_xi1/ne=   1.5154 
 +  1:n_xi1/xi=  38.1459m   1:n_xi1/ne=   1.5154    1:n_xi1/xi=  38.1538m
 +  1:n_xi1/xi=   1.7665    1:n_vdd!_x=   1.5120    1:n_xi1/ne=  61.3213m
 +  1:n_xi1/ne=   1.5154    1:n_xi1/xi=   1.7665    1:n_xi1/xi=   1.7666 
 +  1:n_xi1/ne=   1.5154    1:n_xi1/xi=   1.5115    1:n_a<6>_x= 654.9137u
 +  1:n_gnd!_x=  13.1325m   1:n_xi1/xi=   1.7715    1:n_b<6>_x=   1.8000 
 +  1:n_xi1/xi=   1.5115    1:n_b<6>_x=   1.7974    1:n_xi1/xi=   1.5115 
 +  1:n_a<6>_x= 654.8223u   1:n_vdd!_x=   1.5120    1:n_xi1/xi=   1.7715 
 +  1:n_b<6>_x=   1.8000    1:n_a<6>_x= 652.8340u   1:n_a<6>_x= 667.8659u
 +  1:n_b<6>_x=   1.7973    1:n_xi1/xi=   1.7684    1:n_gnd!_x=  12.8793m
 +  1:n_xi1/xi=  18.1517m   1:n_xi1/ne=   1.5153    1:n_xi1/xi=  18.3559m
 +  1:n_xi1/xi=   1.7686    1:n_vdd!_x=   1.5056    1:n_xi1/ne=   1.5153 
 +  1:n_vdd!_x=   1.5045    1:n_xi1/xi=   1.5029    1:n_xi1/xi=  18.2248m
 +  1:n_gnd!_x=  12.4378m   1:n_xi1/xi=   1.5029    1:n_xi1/xi=  18.2758m
 +  1:n_vdd!_x=   1.5032    1:n_a<6>_x=  61.1368u   1:n_gnd!_x=  12.4631m
 +  1:n_xi1/xi=   1.5031    1:n_b<6>_x=   1.8000    1:n_xi1/xi=   1.5031 
 +  1:n_a<6>_x=  93.5753u   1:n_vdd!_x=   1.5032    1:n_b<6>_x=   1.8000 
 +  1:n_vdd!_x=   1.5029    1:n_xi1/xi=  12.5556m   1:n_xi1/xi=   1.5030 
 +  1:n_gnd!_x=  12.4146m   1:n_xi1/xi=  12.5581m   1:n_xi1/xi=   1.5031 
 +  1:n_vdd!_x=   1.5027    1:n_xi1/xi=   1.4911    1:n_xi1/xi=  12.6413m
 +  1:n_gnd!_x=  12.4051m   1:n_xi1/xi=   1.4911    1:n_xi1/xi=  12.6354m
 +  1:n_xi1/xi=  12.6730m   1:n_vdd!_x=   1.4918    1:n_xi1/xi=   1.4911 
 +  1:n_xi1/xi=  12.6671m   1:n_xi1/ne=  12.5224m   1:n_xi1/xi=   1.4910 
 +  1:n_gnd!_x=  12.4047m   1:n_xi1/ne=  12.5245m   1:n_xi1/xi=   1.4911 
 +  1:n_vdd!_x=   1.4919    1:n_xi1/xi=   1.4989    1:n_xi1/xi= 585.2030u
 +  1:n_gnd!_x=  12.4081m   1:n_xi1/ne=   1.5016    1:n_xi1/ne=   1.5017 
 +  1:n_xi1/xi=   1.4989    1:n_xi1/ne=   1.5017    1:n_xi1/xi=   1.4989 
 +  1:n_xi1/xi= 585.1156u   1:n_vdd!_x=   1.4993    1:n_xi1/ne=   1.5016 
 +  1:n_xi1/ne=   1.5017    1:n_xi1/xi= 578.6445u   1:n_xi1/xi= 584.6763u
 +  1:n_xi1/ne=   1.5017    1:n_xi1/xi=   1.4984    1:n_a<7>_x=  12.5386u
 +  1:n_gnd!_x=  12.4094m   1:n_xi1/xi= 499.6512u   1:n_b<7>_x=   1.4017u
 +  1:n_xi1/xi=   1.4984    1:n_b<7>_x=  55.9264u   1:n_xi1/xi=   1.4984 
 +  1:n_a<7>_x=  12.4512u   1:n_vdd!_x=   1.4993    1:n_xi1/xi= 499.6512u
 +  1:n_b<7>_x=   1.3142u   1:n_a<7>_x=   5.8125u   1:n_a<7>_x=   5.6521u
 +  1:n_b<7>_x=  55.3368u   1:n_xi1/xi= 599.9411u   1:n_gnd!_x=  12.4080m
 +  1:n_xi1/xi=   1.4945    1:n_xi1/ne=   1.5017    1:n_xi1/xi=   1.4945 
 +  1:n_xi1/xi= 630.4967u   1:n_vdd!_x=   1.4946    1:n_xi1/ne=   1.5017 
 +  1:n_vdd!_x=   1.4937    1:n_xi1/xi=  12.5677m   1:n_xi1/xi=   1.4944 
 +  1:n_gnd!_x=  12.4055m   1:n_xi1/xi=  12.5703m   1:n_xi1/xi=   1.4945 
 +  1:n_vdd!_x=   1.4925    1:n_a<7>_x=  49.2363u   1:n_gnd!_x=  12.4057m
 +  1:n_xi1/xi=   1.4922    1:n_b<7>_x=  52.9115u   1:n_xi1/xi=   1.4922 
 +  1:n_a<7>_x=  79.8276u   1:n_vdd!_x=   1.4926    1:n_b<7>_x=  82.5298u
 +  1:n_vdd!_x=   1.4923    1:n_xi1/xi=  12.5636m   1:n_xi1/xi=   1.4921 
 +  1:n_gnd!_x=  12.4051m   1:n_xi1/xi=  12.5658m   1:n_xi1/xi=   1.4922 
 +  1:n_vdd!_x=   1.4921    1:n_xi1/xi= 574.5311m   1:n_xi1/xi= 574.6251m
 +  1:n_xi1/xi= 574.6375m   1:n_xi1/xi= 574.6391m   1:n_xi1/xi= 574.6393m
 +  1:n_xi1/xi= 574.6393m   1:n_xi1/xi= 573.0176m   1:n_xi1/xi= 573.0185m
 +  1:n_xi1/xi= 573.0186m   1:n_xi1/xi= 574.4260m   1:n_xi1/xi= 574.6112m
 +  1:n_xi1/xi= 574.6388m   1:n_xi1/xi= 574.6393m   1:n_xi1/xi= 574.6393m
 +  1:n_xi1/xi= 573.0187m   1:n_xi1/xi= 574.5118m   1:n_xi1/xi= 574.6225m
 +  1:n_xi1/xi= 574.6390m   1:n_xi1/xi= 574.6393m   1:n_xi1/xi= 574.6393m
 +  1:n_xi1/xi= 573.0297m   1:n_xi1/xi= 573.1209m   1:n_xi1/xi= 573.0316m
 +  1:n_xi1/xi= 573.0363m   1:n_xi1/xi= 573.0322m   1:n_xi1/xi= 573.0322m
 +  1:n_xi1/xi= 574.6300m   1:n_xi1/xi= 574.6300m   1:n_xi1/xi= 573.0322m
 +  1:n_xi1/xi= 573.1407m   1:n_xi1/xi= 574.6300m   1:n_xi1/xi= 495.7872m
 +  1:n_xi1/xi= 495.8786m   1:n_xi1/xi= 495.8907m   1:n_xi1/xi= 495.8923m
 +  1:n_xi1/xi= 495.8925m   1:n_xi1/xi= 495.8925m   1:n_xi1/xi= 494.3143m
 +  1:n_xi1/xi= 494.3152m   1:n_xi1/xi= 494.3153m   1:n_xi1/xi= 495.6849m
 +  1:n_xi1/xi= 495.8652m   1:n_xi1/xi= 495.8920m   1:n_xi1/xi= 495.8924m
 +  1:n_xi1/xi= 495.8925m   1:n_xi1/xi= 494.3154m   1:n_xi1/xi= 495.7683m
 +  1:n_xi1/xi= 495.8762m   1:n_xi1/xi= 495.8922m   1:n_xi1/xi= 495.8925m
 +  1:n_xi1/xi= 495.8925m   1:n_xi1/xi= 494.3260m   1:n_xi1/xi= 494.4148m
 +  1:n_xi1/xi= 494.3279m   1:n_xi1/xi= 494.3325m   1:n_xi1/xi= 494.3285m
 +  1:n_xi1/xi= 494.3285m   1:n_xi1/xi= 495.8834m   1:n_xi1/xi= 495.8834m
 +  1:n_xi1/xi= 494.3285m   1:n_xi1/xi= 494.4340m   1:n_xi1/xi= 495.8835m
 +  1:n_xi1/xi= 436.5879m   1:n_xi1/xi= 436.6765m   1:n_xi1/xi= 436.6882m
 +  1:n_xi1/xi= 436.6897m   1:n_xi1/xi= 436.6899m   1:n_xi1/xi= 436.6900m
 +  1:n_xi1/xi= 435.1609m   1:n_xi1/xi= 435.1618m   1:n_xi1/xi= 435.1619m
 +  1:n_xi1/xi= 436.4888m   1:n_xi1/xi= 436.6635m   1:n_xi1/xi= 436.6895m
 +  1:n_xi1/xi= 436.6899m   1:n_xi1/xi= 436.6900m   1:n_xi1/xi= 435.1620m
 +  1:n_xi1/xi= 436.5697m   1:n_xi1/xi= 436.6741m   1:n_xi1/xi= 436.6897m
 +  1:n_xi1/xi= 436.6899m   1:n_xi1/xi= 436.6900m   1:n_xi1/xi= 435.1723m
 +  1:n_xi1/xi= 435.2584m   1:n_xi1/xi= 435.1741m   1:n_xi1/xi= 435.1786m
 +  1:n_xi1/xi= 435.1747m   1:n_xi1/xi= 435.1747m   1:n_xi1/xi= 436.6811m
 +  1:n_xi1/xi= 436.6811m   1:n_xi1/xi= 573.0175m   1:n_xi1/xi= 435.1747m
 +  1:n_xi1/xi= 435.2770m   1:n_xi1/xi= 436.6811m   1:n_xi1/xi= 192.2261m
 +  1:n_xi1/xi= 192.3275m   1:n_xi1/xi= 192.3409m   1:n_xi1/xi= 192.3426m
 +  1:n_xi1/xi= 192.3429m   1:n_xi1/xi= 192.3429m   1:n_init_x= 900.0153m
 +  1:n_xi1/xi= 190.5934m   1:n_xi1/xi= 190.5944m   1:n_xi1/xi= 190.5945m
 +  1:n_xi1/xi= 192.1128m   1:n_xi1/xi= 192.3126m   1:n_xi1/xi= 192.3424m
 +  1:n_xi1/xi= 192.3428m   1:n_xi1/xi= 192.3429m   1:n_xi1/xi= 190.5946m
 +  1:n_xi1/xi= 192.2053m   1:n_gnd!_x= 224.6160m   1:n_xi1/xi= 192.3248m
 +  1:n_xi1/xi= 192.3426m   1:n_xi1/xi= 192.3428m   1:n_xi1/xi= 192.3429m
 +  1:n_xi1/xi= 190.6064m   1:n_xi1/xi= 190.7049m   1:n_xi1/xi= 190.6085m
 +  1:n_xi1/xi= 190.6136m   1:n_xi1/xi= 190.6092m   1:n_xi1/xi= 190.6093m
 +  1:n_gnd!_x= 224.4880m   1:n_xi1/xi= 192.3328m   1:n_xi1/xi= 192.3328m
 +  1:n_xi1/xi= 190.6092m   1:n_xi1/xi= 190.7262m   1:n_xi1/xi= 192.3339m
 +  1:n_xi1/xi= 187.5608m   1:n_xi1/xi= 187.6608m   1:n_xi1/xi= 187.6739m
 +  1:n_xi1/xi= 187.6757m   1:n_xi1/xi= 187.6759m   1:n_xi1/xi= 187.6759m
 +  1:n_xi1/xi= 185.9505m   1:n_xi1/xi= 185.9515m   1:n_xi1/xi= 185.9516m
 +  1:n_xi1/xi= 187.4489m   1:n_xi1/xi= 187.6460m   1:n_xi1/xi= 187.6754m
 +  1:n_xi1/xi= 187.6759m   1:n_xi1/xi= 187.6759m   1:n_xi1/xi= 574.6393m
 +  1:n_xi1/xi= 187.5402m   1:n_xi1/xi= 187.6581m   1:n_xi1/xi= 187.6759m
 +  1:n_xi1/xi= 185.9633m   1:n_xi1/xi= 186.0604m   1:n_xi1/xi= 185.9654m
 +  1:n_xi1/xi= 185.9704m   1:n_xi1/xi= 185.9660m   1:n_xi1/xi= 185.9660m
 +  1:n_xi1/xi= 187.6660m   1:n_init_x= 900.0155m   1:n_xi1/xi= 187.6660m
 +  1:n_xi1/xi= 185.9660m   1:n_xi1/xi= 186.0814m   1:n_xi1/xi= 187.6660m
 +  1:n_xi3/xi=  26.6382m   1:n_xi3/xi=  26.6382m   1:n_xi3/xi=  26.6384m
 +  1:n_xi3/xi=  26.6382m   1:n_vdd!_x=   1.5353    1:n_xi3/xi=  35.9483m
 +  1:n_xi3/xi=  35.9483m   1:n_xi3/xi=  35.9484m   1:n_xi3/xi=  35.9483m
 +  1:n_xi3/xi=   1.5376    1:n_xi3/xi=   1.5376    1:n_xi3/xi=   1.5376 
 +  1:n_xi3/xi=   1.5376    1:n_vdd!_x=   1.5353    1:n_xi3/xi=  36.7248m
 +  1:n_xi3/xi=  36.7248m   1:n_xi3/xi=  36.7249m   1:n_xi3/xi=  36.7248m
 +  1:n_xi3/xi=   1.5344    1:n_xi3/xi=   1.5344    1:n_xi3/xi=   1.5344 
 +  1:n_xi3/xi=   1.5344    1:n_xi1/ne=   1.5301    1:n_xi3/xi=  32.4375m
 +  1:n_xi3/xi=  32.4375m   1:n_xi3/xi=  32.4376m   1:n_xi3/xi=  32.4375m
 +  1:n_xi3/xi=  20.0609m   1:n_xi3/xi=  20.0609m   1:n_xi3/xi=  20.0611m
 +  1:n_xi3/xi=  20.0609m   1:n_xi1/xi= 573.0322m   1:n_xi1/xi=  93.3700m
 +  1:n_xi1/xi=  93.3700m   1:n_xi1/xi=  93.3701m   1:n_xi1/xi=  93.3700m
 +  1:n_xi1/xi=  11.0831m   1:n_xi1/xi=  11.0831m   1:n_xi1/xi=  11.0833m
 +  1:n_xi1/xi=  11.0831m   1:n_s<4>_x= 393.9648m   1:n_xi1/xi=   1.5238 
 +  1:n_xi1/xi=   1.5238    1:n_xi1/xi=   1.5238    1:n_xi1/xi=   1.5238 
 +  1:n_xi1/xi=  29.6525m   1:n_xi1/xi=  29.6525m   1:n_xi1/xi=  29.6528m
 +  1:n_xi1/xi=  29.6525m   1:n_xi1/ne= 219.4061m   1:n_xi1/xi=   9.3752m
 +  1:n_xi1/xi=   9.3752m   1:n_xi1/xi=   9.3753m   1:n_xi1/xi=  13.1401m
 +  1:n_xi1/xi=  13.1401m   1:n_xi1/xi=  13.1402m   1:n_xi1/xi=   1.5307 
 +  1:n_xi1/xi=   1.5307    1:n_init_x= 900.0153m   1:n_xi1/xi=   1.5307 
 +  1:n_xi1/xi=   1.5307    1:n_xi1/xi=  26.9090m   1:n_xi1/xi=  26.9090m
 +  1:n_xi1/xi=  26.9093m   1:n_xi1/xi=  40.8177m   1:n_xi1/xi=  40.8177m
 +  1:n_xi1/xi=  40.8178m   1:n_xi1/ne=   1.5301    1:n_xi1/xi=  40.8177m
 +  1:n_xi1/xi=   1.5091    1:n_xi1/xi=   1.5091    1:n_xi1/xi=   1.5091 
 +  1:n_xi1/xi=   1.5091    1:n_xi1/xi=   1.4984    1:n_xi1/xi=   1.4984 
 +  1:n_xi1/xi=   1.4984    1:n_init_x= 900.0154m   1:n_xi1/xi=   1.4984 
 +  1:n_xi1/xi=   1.4979    1:n_xi1/xi=   1.4979    1:n_xi1/xi=   1.4979 
 +  1:n_xi1/xi=   1.4979    1:n_xi1/xi=  38.1457m   1:n_xi1/xi=  38.1457m
 +  1:n_xi1/xi=  38.1458m   1:n_s<4>_x= 394.1317m   1:n_xi1/xi=  38.1457m
 +  1:n_xi1/xi=   1.5115    1:n_xi1/xi=   1.5115    1:n_xi1/xi=   1.5115 
 +  1:n_xi1/xi=   1.4989    1:n_xi1/xi=   1.4989    1:n_xi1/xi=   1.4989 
 +  1:n_xi1/xi=   1.4989    1:n_xi1/ne= 219.4061m   1:n_xi1/xi=   1.4984 
 +  1:n_xi1/xi=   1.4984    1:n_xi1/xi=   1.4984    1:n_xi3/xi=  27.7078m
 +  1:n_xi3/xi=  27.7060m   1:n_xi3/xi=  27.7061m   1:n_xi3/xi=  27.8537m
 +  1:n_xi3/xi=  27.9088m   1:n_xi1/xi= 574.6300m   1:n_xi3/xi=  27.7441m
 +  1:n_xi3/xi=  27.6727m   1:n_xi3/xi=  27.8447m   1:n_xi3/xi=  27.6718m
 +  1:n_xi3/xi=  27.7690m   1:n_xi3/xi=  20.3575m   1:n_xi3/xi=  20.3556m
 +  1:n_xi3/xi=  20.3556m   1:n_xi3/xi=  20.3991m   1:n_s<4>_x= 394.0154m
 +  1:n_xi3/xi=  20.4236m   1:n_xi3/xi=  20.3503m   1:n_xi3/xi=  20.3191m
 +  1:n_xi3/xi=  20.3951m   1:n_xi3/xi=  20.3181m   1:n_xi3/xi=  20.3614m
 +  1:n_xi3/xi=   1.5401    1:n_xi3/xi=   1.5401    1:n_xi3/xi=   1.5401 
 +  1:n_xi3/xi=   1.5402    1:n_xi3/xi=   1.5402    1:n_xi3/xi=   1.5402 
 +  1:n_xi3/xi=   1.5402    1:n_xi3/xi=   1.5402    1:n_xi3/xi=   1.5402 
 +  1:n_xi3/xi=   1.5402    1:n_xi3/xi=  20.6630m   1:n_xi3/xi=  20.6612m
 +  1:n_xi1/xi= 494.3141m   1:n_xi3/xi=  20.6612m   1:n_xi3/xi=  20.7049m
 +  1:n_xi3/xi=  20.7292m   1:n_xi3/xi=  20.6567m   1:n_xi3/xi=  20.6259m
 +  1:n_xi3/xi=  20.7010m   1:n_xi3/xi=  20.6249m   1:n_xi3/xi=  20.6677m
 +  1:n_xi3/xi=   1.5357    1:n_init_x= 900.0152m   1:n_xi3/xi=   1.5357 
 +  1:n_xi3/xi=   1.5357    1:n_xi3/xi=   1.5357    1:n_xi3/xi=   1.5357 
 +  1:n_xi3/xi=   1.5357    1:n_xi3/xi=   1.5357    1:n_xi3/xi=   1.5357 
 +  1:n_xi3/xi=   1.5357    1:n_xi3/xi=   1.5357    1:n_gnd!_x= 219.1618m
 +  1:n_xi3/xi=  19.9651m   1:n_xi3/xi=  19.9632m   1:n_xi3/xi=  19.9632m
 +  1:n_xi3/xi=  19.9972m   1:n_xi3/xi=  20.0188m   1:n_xi3/xi=  19.9545m
 +  1:n_xi3/xi=  19.9273m   1:n_xi3/xi=  19.9938m   1:n_xi3/xi=  19.9263m
 +  1:n_xi3/xi=  19.9642m   1:n_gnd!_x= 219.0373m   1:n_xi3/xi=   1.5365 
 +  1:n_xi3/xi=   1.5365    1:n_xi3/xi=   1.5365    1:n_xi3/xi=   1.5366 
 +  1:n_xi3/xi=   1.5366    1:n_xi3/xi=   1.5366    1:n_xi3/xi=   1.5366 
 +  1:n_xi3/xi=   1.5366    1:n_xi3/xi=   1.5366    1:n_xi3/xi=   1.5366 
 +  1:n_xi1/xi=  14.2568m   1:n_xi1/xi=  14.2550m   1:n_xi1/xi=  14.2550m
 +  1:n_xi1/xi=  14.2964m   1:n_xi1/xi=  14.3199m   1:n_xi1/xi=  14.2497m
 +  1:n_xi1/xi=  14.2197m   1:n_xi1/xi=  14.2926m   1:n_xi1/xi= 495.8925m
 +  1:n_xi1/xi=  14.2188m   1:n_xi1/xi=  14.2603m   1:n_xi1/xi=   1.5279 
 +  1:n_xi1/xi=   1.5279    1:n_xi1/xi=   1.5279    1:n_xi1/xi=   1.5279 
 +  1:n_xi1/xi=   1.5279    1:n_xi1/xi=   1.5279    1:n_xi1/xi=   1.5279 
 +  1:n_init_x= 900.0154m   1:n_xi1/xi=   1.5279    1:n_xi1/xi=   1.5279 
 +  1:n_xi1/xi=   1.5279    1:n_xi1/xi=   1.5174    1:n_xi1/xi=   1.5174 
 +  1:n_xi1/xi=   1.5174    1:n_xi1/xi=   1.5174    1:n_xi1/xi=   1.5174 
 +  1:n_xi1/xi=   1.5174    1:n_vdd!_x=   1.5196    1:n_xi1/xi=   1.5174 
 +  1:n_xi1/xi=   1.5174    1:n_xi1/xi=   1.5174    1:n_xi1/xi=   1.5174 
 +  1:n_xi1/xi=  27.7322m   1:n_xi1/xi=  27.7307m   1:n_xi1/xi=  27.7307m
 +  1:n_xi1/xi=  27.8829m   1:n_xi1/xi=  27.9380m   1:n_vdd!_x=   1.5196 
 +  1:n_xi1/xi=  27.7736m   1:n_xi1/xi=  27.7021m   1:n_xi1/xi=  27.8740m
 +  1:n_xi1/xi=  27.7013m   1:n_xi1/xi=  27.7984m   1:n_xi1/xi=   1.5413 
 +  1:n_xi1/xi=   1.5413    1:n_xi1/xi=   1.5413    1:n_xi1/xi=   1.5413 
 +  1:n_xi1/ne= 103.4989m   1:n_xi1/xi=   1.5414    1:n_xi1/xi=   1.5413 
 +  1:n_xi1/xi=   1.5413    1:n_xi1/xi=   1.5413    1:n_xi1/xi=   1.5413 
 +  1:n_xi1/xi=   1.5413    1:n_xi1/xi=   1.5389    1:n_xi1/xi=   1.5389 
 +  1:n_xi1/xi=   1.5389    1:n_xi1/xi= 494.3285m   1:n_xi1/xi=   1.5390 
 +  1:n_xi1/xi=   1.5390    1:n_xi1/xi=   1.5389    1:n_xi1/xi=   1.5389 
 +  1:n_xi1/xi=   1.5390    1:n_xi1/xi=   1.5389    1:n_xi1/xi=   1.5389 
 +  1:n_xi1/xi=   1.5200    1:n_xi1/xi=   1.5200    1:n_s<5>_x=   1.3254 
 +  1:n_xi1/xi=   1.5200    1:n_xi1/xi=   1.5201    1:n_xi1/xi=   1.5201 
 +  1:n_xi1/xi=   1.5201    1:n_xi1/xi=   1.5201    1:n_xi1/xi=   1.5201 
 +  1:n_xi1/xi=   1.5201    1:n_xi1/xi=   1.5201    1:n_xi1/xi=  25.4369m
 +  1:n_xi1/ne=   1.4206    1:n_xi1/xi=  25.4354m   1:n_xi1/xi=  25.4354m
 +  1:n_xi1/xi=  25.5904m   1:n_xi1/xi=  25.6467m   1:n_xi1/xi=  25.4787m
 +  1:n_xi1/xi=  25.4056m   1:n_xi1/xi=  25.5813m   1:n_xi1/xi=  25.4048m
 +  1:n_xi1/xi=  25.5040m   1:n_init_x= 900.0153m   1:n_xi1/xi=  21.0277m
 +  1:n_xi1/xi=  21.0263m   1:n_xi1/xi=  21.0263m   1:n_xi1/xi=  21.0721m
 +  1:n_xi1/xi=  21.0946m   1:n_xi1/xi=  21.0274m   1:n_xi1/xi=  20.9987m
 +  1:n_xi1/xi=  21.0685m   1:n_xi1/xi=  20.9979m   1:n_xi1/xi=  21.0376m
 +  1:n_xi1/ne= 103.4096m   1:n_xi1/xi=   1.5020    1:n_xi1/xi=   1.5020 
 +  1:n_xi1/xi=   1.5020    1:n_xi1/xi=   1.5020    1:n_xi1/xi=   1.5020 
 +  1:n_xi1/xi=   1.5020    1:n_xi1/xi=   1.5020    1:n_xi1/xi=   1.5020 
 +  1:n_xi1/xi=   1.5020    1:n_init_x= 900.0152m   1:n_xi1/xi=   1.5020 
 +  1:n_xi1/xi=   1.4962    1:n_xi1/xi=   1.4962    1:n_xi1/xi=   1.4962 
 +  1:n_xi1/xi=   1.4962    1:n_xi1/xi=   1.4962    1:n_xi1/xi=   1.4962 
 +  1:n_xi1/xi=   1.4962    1:n_xi1/xi=   1.4962    1:n_s<5>_x=   1.3254 
 +  1:n_xi1/xi=   1.4962    1:n_xi1/xi=   1.4962    1:n_xi1/xi=   1.4959 
 +  1:n_xi1/xi=   1.4959    1:n_xi1/xi=   1.4959    1:n_xi1/xi=   1.4959 
 +  1:n_xi1/xi=   1.4959    1:n_xi1/xi=   1.4959    1:n_xi1/xi=   1.4959 
 +  1:n_xi1/ne=   1.4205    1:n_xi1/xi=   1.4959    1:n_xi1/xi=   1.4959 
 +  1:n_xi1/xi=   1.4959    1:n_xi1/xi=  18.2256m   1:n_xi1/xi=  18.2241m
 +  1:n_xi1/xi=  18.2241m   1:n_xi1/xi=  18.2718m   1:n_xi1/xi=  18.2951m
 +  1:n_xi1/xi=  18.2255m   1:n_xi1/xi= 495.8835m   1:n_xi1/xi=  18.1957m
 +  1:n_xi1/xi=  18.2680m   1:n_xi1/xi=  18.1949m   1:n_xi1/xi=  18.2360m
 +  1:n_xi1/xi=   1.5031    1:n_xi1/xi=   1.5031    1:n_xi1/xi=   1.5031 
 +  1:n_xi1/xi=   1.5031    1:n_xi1/xi=   1.5031    1:n_s<5>_x=   1.3255 
 +  1:n_xi1/xi=   1.5031    1:n_xi1/xi=   1.5031    1:n_xi1/xi=   1.5031 
 +  1:n_xi1/xi=   1.5031    1:n_xi1/xi=   1.5031    1:n_xi1/xi=   1.4945 
 +  1:n_xi1/xi=   1.4945    1:n_xi1/xi=   1.4945    1:n_xi1/xi=   1.4945 
 +  1:n_xi1/xi=   1.4945    1:n_xi1/xi=   1.4945    1:n_xi1/xi=   1.4945 
 +  1:n_xi1/xi=   1.4945    1:n_xi1/xi=   1.4945    1:n_xi1/xi=   1.4945 
 +  1:n_xi1/xi=   1.4922    1:n_xi1/xi=   1.4922    1:n_xi1/xi=   1.4922 
 +  1:n_xi1/xi= 435.1608m   1:n_xi1/xi=   1.4922    1:n_xi1/xi=   1.4922 
 +  1:n_xi1/xi=   1.4922    1:n_xi1/xi=   1.4922    1:n_xi1/xi=   1.4922 
 +  1:n_xi1/xi=   1.4922    1:n_xi1/xi=   1.4922    1:n_xi3/xi=   1.7730 
 +  1:n_xi3/xi=   1.7730    1:n_init_x= 900.0150m   1:n_xi3/xi=   1.7731 
 +  1:n_xi3/xi=   1.7730    1:n_xi3/xi=   1.7746    1:n_xi3/xi=   1.7731 
 +  1:n_xi3/xi=   1.7730    1:n_xi3/xi=   1.7730    1:n_xi3/xi=   1.7731 
 +  1:n_xi3/xi=   1.7750    1:n_xi3/xi=   1.7750    1:n_xi3/xi=   1.7770 
 +  1:n_gnd!_x= 212.7662m   1:n_xi3/xi=   1.7750    1:n_xi3/xi=   1.7750 
 +  1:n_xi3/xi=   1.7750    1:n_xi3/xi=   1.7748    1:n_xi3/xi=   1.5395 
 +  1:n_xi3/xi=   1.5395    1:n_xi3/xi=   1.5395    1:n_xi3/xi=   1.5395 
 +  1:n_xi3/xi=   1.5395    1:n_gnd!_x= 212.6456m   1:n_xi3/xi=   1.5395 
 +  1:n_xi3/xi=   1.5395    1:n_xi3/xi=   1.5395    1:n_xi3/xi=   1.5395 
 +  1:n_xi3/xi=   1.5395    1:n_xi3/xi=   1.5395    1:n_xi3/xi=   1.5395 
 +  1:n_xi3/xi=   1.5395    1:n_xi3/xi=   1.5395    1:n_xi3/xi=   1.5395 
 +  1:n_xi3/xi=   1.5395    1:n_xi3/xi=   1.5395    1:n_xi3/xi=   1.5395 
 +  1:n_xi3/xi=   1.5395    1:n_xi3/xi=   1.5394    1:n_xi3/xi=   1.5394 
 +  1:n_xi3/xi=   1.5395    1:n_xi3/xi=   1.5394    1:n_xi3/xi=   1.5394 
 +  1:n_xi3/xi=   1.5394    1:n_xi1/xi= 436.6900m   1:n_xi3/xi=   1.5394 
 +  1:n_xi3/xi=  14.3556m   1:n_xi3/xi=  14.3559m   1:n_xi3/xi=  14.3559m
 +  1:n_xi3/xi=  14.3559m   1:n_xi3/xi=  14.3559m   1:n_xi3/xi=  14.3559m
 +  1:n_xi3/xi=  14.3515m   1:n_xi3/xi=  14.3515m   1:n_init_x= 900.0152m
 +  1:n_xi3/xi=  14.3515m   1:n_xi3/xi=  14.3559m   1:n_xi3/xi=  14.3559m
 +  1:n_xi3/xi=  14.3559m   1:n_xi3/xi=  14.3515m   1:n_xi3/xi=  14.3556m
 +  1:n_xi3/xi=  14.3559m   1:n_xi3/xi=  14.3515m   1:n_xi3/xi=  14.3559m
 +  1:n_xi3/xi=  14.3515m   1:n_vdd!_x=   1.5051    1:n_xi3/xi=  14.3559m
 +  1:n_xi3/xi=  14.3518m   1:n_xi3/xi=  14.3518m   1:n_xi3/xi=  14.3522m
 +  1:n_xi3/xi=  14.3522m   1:n_xi3/xi=  14.3522m   1:n_xi3/xi=  14.3522m
 +  1:n_xi3/xi=  14.3522m   1:n_xi3/xi=  14.3522m   1:n_xi3/xi=  14.3522m
 +  1:n_vdd!_x=   1.5051    1:n_xi3/xi=   9.8778m   1:n_xi3/xi=   9.8754m
 +  1:n_xi3/xi=   9.8754m   1:n_xi3/xi=   9.8287m   1:n_xi3/xi=   9.8299m
 +  1:n_xi3/xi=   9.8300m   1:n_xi3/xi=   9.8309m   1:n_xi3/xi=   9.8277m
 +  1:n_xi3/xi=   9.8290m   1:n_xi1/ne=  61.4313m   1:n_xi3/xi=   9.8300m
 +  1:n_xi3/xi=   9.8300m   1:n_xi3/xi=   1.7723    1:n_xi3/xi=   1.7723 
 +  1:n_xi3/xi=   1.7723    1:n_xi3/xi=   1.7723    1:n_xi3/xi=   1.7740 
 +  1:n_xi3/xi=   1.7723    1:n_xi3/xi=   1.7723    1:n_xi1/xi= 435.1747m
 +  1:n_xi3/xi=   1.7723    1:n_xi3/xi=   1.7723    1:n_xi3/xi=   1.7743 
 +  1:n_xi3/xi=   1.7743    1:n_xi3/xi=   1.7764    1:n_xi3/xi=   1.7743 
 +  1:n_xi3/xi=   1.7743    1:n_xi3/xi=   1.7743    1:n_xi3/xi=   1.7741 
 +  1:n_s<6>_x=  63.2936m   1:n_xi3/xi=   1.5354    1:n_xi3/xi=   1.5354 
 +  1:n_xi3/xi=   1.5354    1:n_xi3/xi=   1.5354    1:n_xi3/xi=   1.5354 
 +  1:n_xi3/xi=   1.5354    1:n_xi3/xi=   1.5354    1:n_xi3/xi=   1.5354 
 +  1:n_xi3/xi=   1.5354    1:n_xi3/xi=   1.5354    1:n_xi1/ne=  63.6179m
 +  1:n_xi3/xi=   1.5354    1:n_xi3/xi=   1.5354    1:n_xi3/xi=   1.5354 
 +  1:n_xi3/xi=   1.5354    1:n_xi3/xi=   1.5354    1:n_xi3/xi=   1.5354 
 +  1:n_xi3/xi=   1.5354    1:n_xi3/xi=   1.5354    1:n_xi3/xi=   1.5354 
 +  1:n_xi3/xi=   1.5354    1:n_init_x= 900.0150m   1:n_xi3/xi=   1.5354 
 +  1:n_xi3/xi=   1.5354    1:n_xi3/xi=   1.5354    1:n_xi3/xi=   1.5353 
 +  1:n_xi3/xi=   1.5354    1:n_xi3/xi=   1.5353    1:n_xi3/xi=  14.8256m
 +  1:n_xi3/xi=  14.8259m   1:n_xi3/xi=  14.8259m   1:n_xi1/ne=  61.4305m
 +  1:n_xi3/xi=  14.8259m   1:n_xi3/xi=  14.8259m   1:n_xi3/xi=  14.8259m
 +  1:n_xi3/xi=  14.8218m   1:n_xi3/xi=  14.8218m   1:n_xi3/xi=  14.8218m
 +  1:n_xi3/xi=  14.8259m   1:n_xi3/xi=  14.8259m   1:n_xi3/xi=  14.8259m
 +  1:n_xi3/xi=  14.8218m   1:n_init_x= 900.0151m   1:n_xi3/xi=  14.8256m
 +  1:n_xi3/xi=  14.8259m   1:n_xi3/xi=  14.8218m   1:n_xi3/xi=  14.8259m
 +  1:n_xi3/xi=  14.8218m   1:n_xi3/xi=  14.8258m   1:n_xi3/xi=  14.8220m
 +  1:n_xi3/xi=  14.8221m   1:n_xi3/xi=  14.8225m   1:n_xi3/xi=  14.8225m
 +  1:n_s<6>_x=  63.2936m   1:n_xi3/xi=  14.8225m   1:n_xi3/xi=  14.8225m
 +  1:n_xi3/xi=  14.8225m   1:n_xi3/xi=  14.8225m   1:n_xi3/xi=  14.8225m
 +  1:n_xi3/xi=  14.8143m   1:n_xi3/xi=  14.8124m   1:n_xi3/xi=  14.8124m
 +  1:n_xi3/xi=  14.7737m   1:n_xi1/ne=  63.6179m   1:n_xi3/xi=  14.7747m
 +  1:n_xi3/xi=  14.7748m   1:n_xi3/xi=  14.7755m   1:n_xi3/xi=  14.7729m
 +  1:n_xi3/xi=  14.7739m   1:n_xi3/xi=  14.7748m   1:n_xi3/xi=  14.7747m
 +  1:n_xi3/xi=   1.7590    1:n_xi3/xi=   1.7590    1:n_xi1/xi= 436.6811m
 +  1:n_xi3/xi=   1.7591    1:n_xi3/xi=   1.7590    1:n_xi3/xi=   1.7603 
 +  1:n_xi3/xi=   1.7591    1:n_xi3/xi=   1.7591    1:n_xi3/xi=   1.7590 
 +  1:n_xi3/xi=   1.7591    1:n_xi3/xi=   1.7606    1:n_xi3/xi=   1.7606 
 +  1:n_xi3/xi=   1.7622    1:n_s<6>_x=  63.2936m   1:n_xi3/xi=   1.7606 
 +  1:n_xi3/xi=   1.7606    1:n_xi3/xi=   1.7606    1:n_xi3/xi=   1.7604 
 +  1:n_xi3/xi=   1.5371    1:n_xi3/xi=   1.5371    1:n_xi3/xi=   1.5371 
 +  1:n_xi3/xi=   1.5371    1:n_xi3/xi=   1.5371    1:n_xi3/xi=   1.5371 
 +  1:n_xi3/xi=   1.5371    1:n_xi3/xi=   1.5371    1:n_xi3/xi=   1.5371 
 +  1:n_xi3/xi=   1.5371    1:n_xi3/xi=   1.5371    1:n_xi3/xi=   1.5371 
 +  1:n_xi3/xi=   1.5371    1:n_xi3/xi=   1.5371    1:n_xi3/xi=   1.5371 
 +  1:n_xi1/xi= 190.5933m   1:n_xi3/xi=   1.5371    1:n_xi3/xi=   1.5371 
 +  1:n_xi3/xi=   1.5371    1:n_xi3/xi=   1.5371    1:n_xi3/xi=   1.5371 
 +  1:n_xi3/xi=   1.5371    1:n_xi3/xi=   1.5371    1:n_xi3/xi=   1.5371 
 +  1:n_xi3/xi=   1.5370    1:n_xi3/xi=   1.5370    1:n_init_x= 900.0145m
 +  1:n_xi3/xi=   1.5370    1:n_xi3/xi=  14.8214m   1:n_xi3/xi=  14.8217m
 +  1:n_xi3/xi=  14.8217m   1:n_xi3/xi=  14.8217m   1:n_xi3/xi=  14.8217m
 +  1:n_xi3/xi=  14.8217m   1:n_xi3/xi=  14.8175m   1:n_xi3/xi=  14.8175m
 +  1:n_gnd!_x=  43.7667m   1:n_xi3/xi=  14.8175m   1:n_xi3/xi=  14.8217m
 +  1:n_xi3/xi=  14.8217m   1:n_xi3/xi=  14.8217m   1:n_xi3/xi=  14.8175m
 +  1:n_xi3/xi=  14.8214m   1:n_xi3/xi=  14.8217m   1:n_xi3/xi=  14.8176m
 +  1:n_xi3/xi=  14.8217m   1:n_xi3/xi=  14.8176m   1:n_gnd!_x=  42.9041m
 +  1:n_xi3/xi=  14.8216m   1:n_xi3/xi=  14.8178m   1:n_xi3/xi=  14.8178m
 +  1:n_xi3/xi=  14.8182m   1:n_xi3/xi=  14.8182m   1:n_xi3/xi=  14.8182m
 +  1:n_xi3/xi=  14.8182m   1:n_xi3/xi=  14.8182m   1:n_xi3/xi=  14.8182m
 +  1:n_xi3/xi=  14.8182m   1:n_xi3/xi=  14.7701m   1:n_xi3/xi=  14.7681m
 +  1:n_xi3/xi=  14.7682m   1:n_xi3/xi=  14.7290m   1:n_xi3/xi=  14.7300m
 +  1:n_xi3/xi=  14.7301m   1:n_xi3/xi=  14.7308m   1:n_xi3/xi=  14.7281m
 +  1:n_xi3/xi=  14.7292m   1:n_xi1/xi= 192.3429m   1:n_xi3/xi=  14.7301m
 +  1:n_xi3/xi=  14.7300m   1:n_xi1/xi=   1.7629    1:n_xi1/xi=   1.7629 
 +  1:n_xi1/xi=   1.7629    1:n_xi1/xi=   1.7629    1:n_xi1/xi=   1.7637 
 +  1:n_xi1/xi=   1.7629    1:n_xi1/xi=   1.7629    1:n_init_x= 900.0147m
 +  1:n_xi1/xi=   1.7629    1:n_xi1/xi=   1.7629    1:n_xi1/xi=   1.7640 
 +  1:n_xi1/xi=   1.7640    1:n_xi1/xi=   1.7653    1:n_xi1/xi=   1.7640 
 +  1:n_xi1/xi=   1.7640    1:n_xi1/xi=   1.7640    1:n_xi1/xi=   1.7639 
 +  1:n_vdd!_x=   1.4952    1:n_xi1/xi=   1.5288    1:n_xi1/xi=   1.5288 
 +  1:n_xi1/xi=   1.5288    1:n_xi1/xi=   1.5288    1:n_xi1/xi=   1.5288 
 +  1:n_xi1/xi=   1.5288    1:n_xi1/xi=   1.5288    1:n_xi1/xi=   1.5288 
 +  1:n_xi1/xi=   1.5288    1:n_xi1/xi=   1.5288    1:n_vdd!_x=   1.4952 
 +  1:n_xi1/xi=   1.5288    1:n_xi1/xi=   1.5288    1:n_xi1/xi=   1.5288 
 +  1:n_xi1/xi=   1.5288    1:n_xi1/xi=   1.5288    1:n_xi1/xi=   1.5288 
 +  1:n_xi1/xi=   1.5288    1:n_xi1/xi=   1.5288    1:n_xi1/xi=   1.5288 
 +  1:n_xi1/xi=   1.5288    1:n_xi1/ne=   1.5015    1:n_xi1/xi=   1.5288 
 +  1:n_xi1/xi=   1.5288    1:n_xi1/xi=   1.5288    1:n_xi1/xi=   1.5287 
 +  1:n_xi1/xi=   1.5288    1:n_xi1/xi=   1.5287    1:n_xi1/xi=  14.7732m
 +  1:n_xi1/xi=  14.7734m   1:n_xi1/xi=  14.7734m   1:n_xi1/xi= 190.6093m
 +  1:n_xi1/xi=  14.7734m   1:n_xi1/xi=  14.7734m   1:n_xi1/xi=  14.7734m
 +  1:n_xi1/xi=  14.7697m   1:n_xi1/xi=  14.7697m   1:n_xi1/xi=  14.7697m
 +  1:n_xi1/xi=  14.7734m   1:n_xi1/xi=  14.7734m   1:n_xi1/xi=  14.7734m
 +  1:n_xi1/xi=  14.7697m   1:n_s<7>_x=   1.5012    1:n_xi1/xi=  14.7731m
 +  1:n_xi1/xi=  14.7734m   1:n_xi1/xi=  14.7698m   1:n_xi1/xi=  14.7734m
 +  1:n_xi1/xi=  14.7698m   1:n_xi1/xi=  14.7733m   1:n_xi1/xi=  14.7700m
 +  1:n_xi1/xi=  14.7700m   1:n_xi1/xi=  14.7703m   1:n_xi1/xi=  14.7703m
 +  1:n_xi1/ne=   1.5011    1:n_xi1/xi=  14.7703m   1:n_xi1/xi=  14.7703m
 +  1:n_xi1/xi=  14.7703m   1:n_xi1/xi=  14.7703m   1:n_xi1/xi=  14.7703m
 +  1:n_xi1/xi=  15.3923m   1:n_xi1/xi=  15.3905m   1:n_xi1/xi=  15.3905m
 +  1:n_xi1/xi=  15.3541m   1:n_init_x= 900.0150m   1:n_xi1/xi=  15.3550m
 +  1:n_xi1/xi=  15.3551m   1:n_xi1/xi=  15.3558m   1:n_xi1/xi=  15.3533m
 +  1:n_xi1/xi=  15.3543m   1:n_xi1/xi=  15.3551m   1:n_xi1/xi=  15.3551m
 +  1:n_xi1/xi=  37.2441m   1:n_xi1/xi=  37.2440m   1:n_xi1/ne=   1.5015 
 +  1:n_xi1/xi=  37.2476m   1:n_xi1/xi=  37.2483m   1:n_xi1/xi=  37.2689m
 +  1:n_xi1/xi=  37.2438m   1:n_xi1/xi=  37.2440m   1:n_xi1/xi=  37.2440m
 +  1:n_xi1/xi=  37.2437m   1:n_xi1/xi=  37.2256m   1:n_xi1/xi=  37.2252m
 +  1:n_xi1/xi=  37.1844m   1:n_init_x= 900.0150m   1:n_xi1/xi=  37.2260m
 +  1:n_xi1/xi=  37.2260m   1:n_xi1/xi=  37.2262m   1:n_xi1/xi=  37.2490m
 +  1:n_xi1/xi=  14.9904m   1:n_xi1/xi=  14.9906m   1:n_xi1/xi=  14.9906m
 +  1:n_xi1/xi=  14.9906m   1:n_xi1/xi=  14.9906m   1:n_s<7>_x=   1.5012 
 +  1:n_xi1/xi=  14.9906m   1:n_xi1/xi=  14.9872m   1:n_xi1/xi=  14.9872m
 +  1:n_xi1/xi=  14.9872m   1:n_xi1/xi=  14.9906m   1:n_xi1/xi=  14.9906m
 +  1:n_xi1/xi=  14.9906m   1:n_xi1/xi=  14.9906m   1:n_xi1/xi=  14.9906m
 +  1:n_xi1/xi=  14.9872m   1:n_xi1/ne=   1.5011    1:n_xi1/xi=  14.9906m
 +  1:n_xi1/xi=  14.9872m   1:n_xi1/xi=  14.9906m   1:n_xi1/xi=  14.9874m
 +  1:n_xi1/xi=  15.0182m   1:n_xi1/xi=  15.0169m   1:n_xi1/xi=  14.9891m
 +  1:n_xi1/xi=  15.0182m   1:n_xi1/xi=  15.0704m   1:n_xi1/xi=  15.0460m
 +  1:n_xi1/xi= 192.3344m   1:n_xi1/xi=  15.0717m   1:n_xi1/xi=   1.5134 
 +  1:n_xi1/xi=   1.5134    1:n_xi1/xi=   1.5134    1:n_xi1/xi=   1.5134 
 +  1:n_xi1/xi=   1.5134    1:n_xi1/xi=   1.5134    1:n_xi1/xi=   1.5134 
 +  1:n_xi1/xi=   1.5134    1:n_s<7>_x=   1.5012    1:n_xi1/xi=   1.5134 
 +  1:n_xi1/xi=   1.5134    1:n_xi1/xi=   1.5134    1:n_xi1/xi=   1.5134 
 +  1:n_xi1/xi=   1.5134    1:n_xi1/xi=   1.5134    1:n_xi1/xi=   1.5134 
 +  1:n_xi1/xi=   1.5134    1:n_xi1/xi=   1.5134    1:n_xi1/xi=   1.5134 
 +  1:n_xi1/xi=   1.5134    1:n_xi1/xi=   1.5134    1:n_xi1/xi=   1.5134 
 +  1:n_xi1/xi=   1.5134    1:n_xi1/xi=   1.5134    1:n_xi1/xi=   1.5134 
 +  1:n_xi1/xi=   1.5134    1:n_xi1/xi=   1.5134    1:n_xi1/xi=   1.5134 
 +  1:n_xi1/xi=   1.5134    1:n_xi1/xi= 185.9503m   1:n_xi1/xi=  15.8883m
 +  1:n_xi1/xi=  15.8867m   1:n_xi1/xi=  15.8867m   1:n_xi1/xi=  15.8526m
 +  1:n_xi1/xi=  15.8548m   1:n_xi1/xi=  15.8560m   1:n_xi1/xi=  15.8556m
 +  1:n_xi1/xi=  15.8526m   1:n_xi1/xi=  15.8530m   1:n_init_x= 900.0143m
 +  1:n_xi1/xi=  15.8566m   1:n_xi1/xi=  15.8550m   1:n_xi1/xi=   1.6644 
 +  1:n_xi1/xi=   1.6644    1:n_xi1/xi=   1.6647    1:n_xi1/xi=   1.6644 
 +  1:n_xi1/xi=   1.6735    1:n_xi1/xi=   1.6647    1:n_xi1/xi=   1.6645 
 +  1:n_gnd!_x=  42.3158m   1:n_xi1/xi=   1.6645    1:n_xi1/xi=   1.6647 
 +  1:n_xi1/xi=   1.6736    1:n_xi1/xi=   1.6737    1:n_xi1/xi=   1.6828 
 +  1:n_xi1/xi=   1.6736    1:n_xi1/xi=   1.6736    1:n_xi1/xi=   1.6736 
 +  1:n_xi1/xi=   1.6735    1:n_xi1/xi=  12.4941m   1:n_xi1/xi=  12.4944m
 +  1:n_xi1/xi=  12.4944m   1:n_xi1/xi=  12.4944m   1:n_xi1/xi=  12.4944m
 +  1:n_xi1/xi=  12.4944m   1:n_xi1/xi=  12.4892m   1:n_xi1/xi=  12.4892m
 +  1:n_xi1/xi=  12.4892m   1:n_xi1/xi=  12.4944m   1:n_xi1/xi= 187.6759m
 +  1:n_xi1/xi=  12.4944m   1:n_xi1/xi=  12.4944m   1:n_xi1/xi=  12.4943m
[...]
  vod         -1.7900     505.3593m    -64.5288m    503.1921m   -312.0180m
  beta         8.7793m      2.9655m      3.5241m      2.9590m      9.0073m
  gam eff    400.0000m    400.0000m    400.0000m    400.0000m    400.0000m
  gm          80.2245n    352.1734p    302.9298u    365.3268p    165.2324n
  gds          7.1454n     50.4475p     66.9581u     51.8168p     14.8842n
  gmb         19.7338n     93.8477p     46.5400u     96.9135p     41.3580n
  cdtot      500.6122a    384.9573a    384.1689a    385.9863a    364.0011a
  cgtot      215.9213a    214.3540a    316.3008a    214.6160a    217.9171a
  cstot      322.5613a    453.5445a    580.1500a    454.1625a    452.1235a
  cbtot      682.6626a    718.7081a    727.5354a    719.7510a    675.3908a
  cgs         70.2129a     93.3693a    233.5656a     93.9267a    109.1965a
  cgd        108.0041a     74.1953a     69.1094a     74.2421a     70.1304a



 subckt     x1           x1           x1           x1           x1        
 element    1:mxi1/xi2   1:mxi1/xi2   1:mxi1/xi2   1:mxi1/xi2   1:mxi1/xi2
 model      0:nmos_vtg   0:nmos_vtg   0:pmos_vtg   0:pmos_vtg   0:pmos_vtg
 region         Cutoff       Cutoff       Linear       Cutoff       Linear
  id         617.0991p     -1.9859a   -487.2021n     88.9223n    -24.9077u
  ibs         -1.4991p     -1.7850p     -9.3865f      1.5020p     -2.9273p
  ibd         -1.7591p     -1.7591p     -8.8503f     -1.2349p     -1.2345p
  vgs        288.4883m   -285.8756m     -1.5114       1.7993      -1.7966 
  vds        260.0459m    -25.8297m   -535.3963u      1.7709     -25.7673m
  vbs         -1.4991      -1.7849      -9.3743m      1.5020    -294.6694m
  vth        630.1841m    680.0744m   -381.6134m   -180.0039m   -331.0669m
  vdsat       41.6144m     41.6275m   -560.2311m    -39.2964m   -678.8253m
  vod       -341.6958m   -965.9499m     -1.1297       1.9793      -1.4656 
  beta         4.7996m      4.3929m      1.5763m      3.4422m      1.4304m
  gam eff    400.0000m    400.0000m    400.0000m    400.0000m    400.0000m
  gm          19.1544n     63.0533a    110.4700n      2.2548u      3.1583u
  gds          1.5900n     50.1052a    909.5354u    367.8118n    948.1000u
  gmb          2.7621n      9.8714a     74.2510n    384.7303n      2.1464u
  cdtot      397.9155a    370.5845a    783.0342a    572.2976a    827.0483a
  cgtot      264.9952a    193.7820a    490.4588a    235.4297a    483.1353a
  cstot      382.4573a    328.3066a    522.0719a    338.9236a    545.5638a
  cbtot      558.2035a    550.4817a    818.9979a    750.0967a    876.8674a
  cgs        129.9785a     84.8221a    272.0172a     74.0542a    266.4403a
  cgd        113.6042a     86.2741a    221.6295a    133.6733a    221.6353a



 subckt     x1           x1           x1           x1           x1        
 element    1:mxi1/xi2   1:mxi1/xi2   1:mxi1/xi2   1:mxi1/xi2   1:mxi1/xi2
 model      0:nmos_vtg   0:nmos_vtg   0:pmos_vtg   0:pmos_vtg   0:nmos_vtg
 region         Linear       Linear       Cutoff       Cutoff       Cutoff
  id          18.1185u     18.0673u    -49.0461p    -53.8417n     51.7906n
  ibs       -475.7907a     -3.1072f     -2.9829f     -1.9152f    -31.5180a
  ibd         -3.1049f     -5.7766f      1.4844p      1.4844p     -1.4906p
  vgs          1.7555       1.4998     263.0711m     10.7855m      5.7871m
  vds          2.6151m      2.6573m     -1.4872      -1.4862       1.4905 
  vbs       -475.9578u     -3.0910m     -2.9354m     -1.9043m    -34.3746u
  vth        410.8375m    411.3837m   -250.9676m   -251.2768m    299.9809m
  vdsat      692.7572m    577.3176m    -40.7911m    -40.8611m     39.5717m
  vod          1.3447       1.0884     514.0387m    262.0624m   -294.1938m
  beta        17.7425m     20.5772m     14.6205m     14.6135m     47.6643m
  gam eff    400.0000m    400.0000m    400.0000m    400.0000m    400.0000m
  gm         919.0893n      1.7895u      1.3747n      1.4624u      1.4147u
  gds          6.9180m      6.7863m    198.1106p    213.2106n    127.3412n
  gmb          2.0287u      2.4016u    370.4374p    338.4276n    350.6456n
  cdtot        3.9429f      3.8608f      1.5998f      1.6026f      1.6517f
  cgtot        2.5645f      2.5763f      1.0523f      1.1379f      1.1604f
  cstot        2.2997f      2.3711f      1.7951f      1.9170f      1.9474f
  cbtot        3.5937f      3.5963f      2.8086f      2.7673f      2.8381f
  cgs          1.3235f      1.3438f    454.4174a    577.0517a    588.9741a
  cgd          1.2651f      1.2524f    365.6454a    368.4697a    371.7689a



 subckt     x1           x1           x1           x1           x1        
 element    1:mxi1/xi2   1:mxi1/xi2   1:mxi1/xi2   1:mxi1/xi2   1:mxi1/xi2
 model      0:pmos_vtg   0:nmos_vtg   0:nmos_vtg   0:pmos_vtg   0:pmos_vtg
 region         Linear       Cutoff       Cutoff       Linear       Cutoff
  id          -1.8185u     26.2912n    252.6214n   -539.5498n      1.5103f
  ibs       -569.5854a    -59.6154a     -1.3660p   -594.8149a   -261.4867a
  ibd       -264.0270a     -1.3660p     -1.4908p   -472.1131a   -471.6989a
  vgs         -1.4849     -12.4019m    421.7220m     -1.5031     297.0630m
  vds       -303.5194u      1.3658     124.8627m   -122.1510u    209.0954u
  vbs       -565.3048u    -59.7016u     -1.3658    -591.4464u   -260.2000u
  vth       -383.3844m    309.2691m    622.9322m   -383.3953m   -383.4121m
  vdsat     -551.8051m     39.6574m     42.0249m   -559.3203m    -42.0883m
  vod         -1.1015    -321.6711m   -201.2103m     -1.1197     680.4752m
  beta        10.7185m     53.0378m     29.1654m      7.7941m     11.4721m
  gam eff    400.0000m    400.0000m    400.0000m    400.0000m    400.0000m
  gm         431.3308n    723.8371n      7.1087u    123.3409n     42.3917f
  gds          5.9897m     63.4000n    672.9895n      4.4166m      7.2058p
  gmb        283.4765n    182.3349n      1.0373u     82.7860n     12.6202f
  cdtot        4.7878f      1.8291f      2.1306f      3.4605f      2.1208f
  cgtot        3.2992f      1.3068f      1.7017f      2.4172f      1.1268f
  cstot        3.0213f      2.1574f      1.9572f      2.1367f      1.7831f
  cbtot        4.5406f      3.1372f      2.6359f      3.2002f      3.2581f
  cgs          1.8342f    655.2249a    794.8444a      1.3419f    443.0411a
  cgd          1.4884f    422.8704a    781.2691a      1.0926f    443.3580a



 subckt     x1           x1           x1           x1           x1        
 element    1:mxi1/xi2   1:mxi1/xi2   1:mxi1/xi3   1:mxi1/xi3   1:mxi1/xi3
 model      0:nmos_vtg   0:pmos_vtg   0:nmos_vtg   0:nmos_vtg   0:pmos_vtg
 region         Linear       Cutoff       Cutoff       Cutoff       Linear
  id         848.0078n    -97.5858n     21.4655n     21.4621n     -1.7991u
  ibs        -10.7882a    -16.6347a   -3.358e-19   -3.356e-19    125.2481a
  ibd       -152.5154a      1.4902p     -1.4787p     -1.4787p    505.4546a
  vgs          1.4906     423.5905u    236.1867u    230.3125u     -1.4792 
  vds        141.0387u     -1.4901       1.4787       1.4787    -378.1293u
  vbs        -11.1704u    -15.1585u     -1.6881u     -1.6881u    124.9598u
  vth        410.9251m   -251.3071m    300.8521m    300.8520m   -383.5157m
  vdsat      573.2242m    -40.8887m     39.5694m     39.5694m   -549.2138m
  vod          1.0797     251.7307m   -300.6159m   -300.6217m     -1.0956 
  beta        18.2718m     19.9269m     23.6259m     23.6259m      8.5421m
  gam eff    400.0000m    400.0000m    400.0000m    400.0000m    400.0000m
  gm          84.4449n      2.6394u    587.5755n    587.4844n    432.3732n
  gds          6.0120m    386.1592n     52.7355n     52.7274n      4.7563m
  gmb        113.4173n    608.2173n    146.1806n    146.1584n    282.3593n
  cdtot        3.5308f      2.2443f    855.4064a    809.2225a      3.7335f
  cgtot        2.2747f      1.5579f    575.2370a    575.2357a      2.6234f
  cstot        2.0778f      2.7266f      1.0557f      1.0557f      2.2869f
  cbtot        3.2819f      3.9356f      1.5354f      1.4892f      3.4228f
  cgs          1.1849f    794.0490a    290.8356a    290.8340a      1.4591f
  cgd          1.1072f    502.5713a    184.6256a    184.6255a      1.1827f



 subckt     x1           x1           x1           x1           x1        
 element    1:mxi1/xi3   1:mxi1/xi3   1:mxi1/xi3   1:mxi1/xi3   1:mxi1/xi3
 model      0:pmos_vtg   0:nmos_vtg   0:pmos_vtg   0:nmos_vtg   0:nmos_vtg
 region         Linear       Linear       Cutoff       Cutoff       Cutoff
  id          -1.7575u    706.8131n    -96.7081n      5.9777n      4.2961f
  ibs        505.4556a   -9.413e-19     74.7800a     -4.0383a     -1.4865p
  ibd        876.6602a   -119.2120a      1.4796p     -1.4865p     -1.4892p
  vgs         -1.4788       1.4786    -829.5133u    -11.8229m      2.8480m
  vds       -369.4219u    117.6963u     -1.4794       1.4865       2.6655m
  vbs        503.0891u     -1.3333u     75.3838u     -4.7664u     -1.4865 
  vth       -383.5921m    410.9247m   -252.2776m    300.2710m    647.7311m
  vdsat     -549.0466m    567.7631m    -40.9007m     39.5345m     41.7475m
  vod         -1.0952       1.0677     251.4481m   -312.0940m   -644.8831m
  beta         8.5432m     18.4057m     19.8885m      8.9947m      4.6512m
  gam eff    400.0000m    400.0000m    400.0000m    400.0000m    400.0000m
  gm         422.7671n     72.5972n      2.6154u    164.1739n    135.0009f
  gds          4.7557m      6.0049m    380.6452n     14.7512n      1.5615p
  gmb        275.8761n     95.4388n    602.5108n     41.1157n     21.1363f
  cdtot        3.6573f      3.5293f      2.2470f    364.5272a    404.8493a
  cgtot        2.6234f      2.2751f      1.5589f    218.0217a    244.2011a
  cstot        2.3600f      2.0786f      2.7276f    452.2791a    363.7859a
  cbtot        3.4197f      3.2820f      3.9379f    675.9711a    569.9008a
  cgs          1.4591f      1.1857f    795.0292a    109.2691a    110.8800a
  cgd          1.1827f      1.1067f    502.7863a     70.1607a    110.5882a



 subckt     x1           x1           x1           x1           x1        
 element    1:mxi1/xi3   1:mxi1/xi3   1:mxi1/xi3   1:mxi1/xi3   1:mxi1/xi3
 model      0:nmos_vtg   0:pmos_vtg   0:pmos_vtg   0:pmos_vtg   0:nmos_vtg
 region         Cutoff       Linear       Cutoff       Linear       Cutoff
  id        -229.5451a   -401.7102n     16.1798n   -151.1002n      5.8769n
  ibs         -1.4894p     -7.3879f      1.4914p     -9.7795f     -5.2716a
  ibd         -1.4892p     -6.9445f     -9.6131f     -9.6129f     -1.4860p
  vgs         -2.8323m     -1.4988       1.5012      -1.5011     -12.3968m
  vds       -166.7397u   -442.8252u      1.5010    -166.3690u      1.4860 
  vbs         -1.4893      -7.3787m      1.4914      -9.7667m     -5.9993u
  vth        648.2594m   -382.0166m   -248.4362m   -381.5686m    300.3084m
  vdsat       41.7480m   -554.9032m    -40.8209m   -555.9516m     39.5346m
  vod       -651.0917m     -1.1167       1.7496      -1.1196    -312.7052m
  beta         4.6468m      1.5851m      2.9805m      1.5838m      8.9940m
  gam eff    400.0000m    400.0000m    400.0000m    400.0000m    400.0000m
  gm           7.2141f     93.5183n    436.3296n     34.9255n    161.4329n
  gds          1.3741p    906.7794u     64.2500n    908.0829u     14.5030n
  gmb          1.1305f     62.0884n     99.3359n     23.2230n     40.4436n
  cdtot      404.5371a    782.3872a    539.3637a    782.9714a    364.5467a
  cgtot      243.2814a    490.7933a    232.4045a    490.7396a    217.9718a
  cstot      363.0681a    522.2013a    339.9580a    522.2854a    452.2152a
  cbtot      569.8182a    818.6148a    725.2443a    819.1455a    676.0047a
  cgs        110.2577a    272.4137a     74.7133a    272.3251a    109.2054a
  cgd        110.2769a    221.5032a    118.9458a    221.5754a     70.1605a



 subckt     x1           x1           x1           x1           x1        
 element    1:mxi1/xi3   1:mxi1/xi3   1:mxi1/xi3   1:mxi1/xi3   1:mxi1/xi3
 model      0:nmos_vtg   0:nmos_vtg   0:pmos_vtg   0:pmos_vtg   0:pmos_vtg
 region         Cutoff       Linear       Linear       Cutoff       Cutoff
  id          -9.0891n    514.6398n   -854.2600n    868.3360a    781.5073a
  ibs         -1.4860p     12.3634f     -7.3912f      1.4920p      1.4919p
  ibd         11.9196f     11.9190f     -6.4479f      1.4915p      1.4915p
  vgs         -1.4984       1.4983      -1.4993      -4.4982u    -49.6847u
  vds         -1.4979     443.7248u   -942.0038u    493.8388u    444.3144u
  vbs         -1.4860      12.3475m     -7.3820m      1.4920       1.4919 
  vth        296.9375m    408.3255m   -381.9717m   -604.8802m   -604.8846m
  vdsat       39.5021m    574.0529m   -555.1565m    -47.7331m    -47.7331m
  vod         -1.7953       1.0900      -1.1174     604.8757m    604.8349m
  beta         9.0525m      3.4412m      1.5847m      1.6649m      1.6649m
  gam eff    400.0000m    400.0000m    400.0000m    400.0000m    400.0000m
  gm         248.0858n     50.5503n    198.9545n     27.3346f     24.6013f
  gds         22.3678n      1.1594m    906.0599u      1.7503p      1.7517p
  gmb         60.8716n     68.5001n    131.9916n      3.8500f      3.4651f
  cdtot      510.9983a    739.8496a    782.1873a    427.8142a    427.8137a
  cgtot      219.2820a    429.9419a    490.7724a    259.7702a    259.7750a
  cstot      323.0842a    479.9090a    522.2951a    383.3467a    383.3537a
  cbtot      691.0203a    780.3641a    818.5272a    598.3228a    598.3246a
  cgs         70.1604a    223.8287a    272.4600a    118.1228a    118.1282a
  cgd        111.5076a    209.1215a    221.4365a    118.1817a    118.1812a



 subckt     x1           x1           x1           x1           x1        
 element    1:mxi1/xi3   1:mxi1/xi3   1:mxi1/xi3   1:mxi1/xi3   1:mxi1/xi3
 model      0:nmos_vtg   0:nmos_vtg   0:pmos_vtg   0:pmos_vtg   0:nmos_vtg
 region         Cutoff       Cutoff       Linear       Cutoff       Linear
  id          17.7213n     20.6686n   -291.5835n     20.1138p    974.1785n
  ibs         -4.6900a     -1.1929p     -2.6086f     -1.7129f     -1.7581a
  ibd         -1.1929p     -1.4822p     -2.5425f     -2.5421f   -164.7147a
  vgs        -11.8081m    296.6223m     -1.4939       8.0788m      1.4820 
  vds          1.1927     289.3654m    -66.1294u    824.3834u    162.1658u
  vbs         -4.6654u     -1.1927      -2.5948m     -1.7042m     -2.1565u
  vth        322.1413m    587.4023m   -383.0006m   -382.9466m    410.9216m
  vdsat       39.7922m     41.6704m   -555.4724m    -42.0789m    569.3136m
  vod       -333.9495m   -290.7799m     -1.1109     391.0254m      1.0711 
  beta        51.7309m     31.1242m      7.8292m     11.4812m     18.3676m
  gam eff    400.0000m    400.0000m    400.0000m    400.0000m    400.0000m
  gm         489.2164n    623.8743n     67.8216n    561.0176p     99.2065n
  gds         41.5442n     51.7412n      4.4090m     24.1706n      6.0066m
  gmb        124.1671n     95.7446n     44.9852n    141.3490p    131.1876n
  cdtot        1.8691f      2.0191f      3.4607f      2.2571f      3.5296f
  cgtot        1.3106f      1.5829f      2.4184f      1.3489f      2.2750f
  cstot        2.1578f      1.9725f      2.1384f      1.9184f      2.0784f
  cbtot        3.1737f      2.6757f      3.2017f      3.2114f      3.2819f
  cgs        655.6164a    781.2637a      1.3436f    577.7594a      1.1855f
  cgd        426.2771a    668.1465a      1.0922f    579.3371a      1.1068f



 subckt     x1           x1           x1           x1           x1        
 element    1:mxi1/xi3   1:mxi1/xi3   1:mxi1/xi3   1:mxi1/xi3   1:mxi1/xi3
 model      0:pmos_vtg   0:nmos_vtg   0:nmos_vtg   0:pmos_vtg   0:pmos_vtg
 region         Cutoff       Cutoff       Cutoff       Linear       Linear
  id         -90.1469n      1.3224n      1.3253n     -1.7118u   -637.5686n
  ibs       -522.9043a     -2.2926a    -87.4534f   -627.6488a   -382.5392a
  ibd          1.4796p    -87.4572f     -1.4799p   -237.1432a   -237.1424a
  vgs          1.9835m    -12.3564m    -99.6653m     -1.4925      -1.4923 
  vds         -1.4799      87.3126m      1.3925    -388.5868u   -144.7129u
  vbs       -518.2563u     -2.2799u    -87.3149m   -624.1487u   -380.2748u
  vth       -252.1104m    404.4337m    325.1739m   -383.3651m   -383.4355m
  vdsat      -40.8911m     40.6430m     39.8420m   -554.8329m   -554.7171m
  vod        254.0939m   -416.7901m   -424.8393m     -1.1091      -1.1088 
  beta        19.8950m     44.0659m     51.4283m      7.8327m      7.8333m
  gam eff    400.0000m    400.0000m    400.0000m    400.0000m    400.0000m
  gm           2.4407u     36.8842n     37.4626n    400.2005n    149.0390n
  gds        355.1646n      4.2837n      3.2873n      4.4036m      4.4052m
  gmb        562.8809n      9.8380n      9.4426n    265.2123n     98.8266n
  cdtot        2.2469f      2.4253f      1.7724f      3.4585f      3.4588f
  cgtot        1.5571f      1.4813f      1.2471f      2.4186f      2.4186f
  cstot        2.7257f      2.1574f      2.1088f      2.1384f      2.1371f
  cbtot        3.9385f      3.5590f      3.0916f      3.2000f      3.1990f
  cgs        793.1024a    655.2432a    597.3222a      1.3439f      1.3437f
  cgd        502.7262a    597.3118a    421.0559a      1.0919f      1.0920f



 subckt     x1           x1        
 element    1:mxi1/xi3   1:mxi1/xi3
 model      0:nmos_vtg   0:pmos_vtg
 region         Linear       Cutoff
  id         951.6661n    -94.5037n
  ibs         -1.3574a   -107.4209a
  ibd       -160.5854a      1.4796p
  vgs          1.4797      85.0051u
  vds        158.4553u     -1.4795 
  vbs         -1.7507u   -105.5937u
  vth        410.9218m   -252.2291m
  vdsat      568.2624m    -40.8976m
  vod          1.0688     252.3141m
  beta        18.3934m     19.8904m
  gam eff    400.0000m    400.0000m
  gm          97.4936n      2.5567u
  gds          6.0052m    372.0806n
  gmb        128.3925n    589.2675n
  cdtot        3.5293f      2.2470f
  cgtot        2.2751f      1.5583f
  cstot        2.0786f      2.7270f
  cbtot        3.2820f      3.9381f
  cgs          1.1856f    794.3676a
  cgd          1.1067f    502.7674a




          ***** job concluded
1****** HSPICE -- D-2010.03-SP2 32-BIT (Aug 26 2010) linux ******               
 ******  
 .include

  ******  job statistics summary tnom=  25.000 temp=  25.000 *****
 
 
 ******  Machine Information  ******
 CPU:
 model name	: Intel(R) Xeon(R) CPU E5-1620 0 @ 3.60GHz
 cpu MHz	: 1200.000
 
 OS:
 Linux version 2.6.32-358.6.2.el6.x86_64 (mockbuild@x86-022.build.eng.bos.redhat
 .com) (gcc version 4.4.7 20120313 (Red Hat 4.4.7-3) (GCC) ) #1 SMP Tue May 14 1
 5:48:21 EDT 2013


  ******  HSPICE Threads Information  ******

  Command Line Threads Count                  :     1
  Available CPU Count                         :     8
  Actual Model Evaluation(Load) Threads Count :     1
  Actual Solver Threads Count                 :     1


  ******  Circuit Statistics  ******
  # nodes       =    8962 # elements   =   23059
  # resistors   =    7878 # capacitors =   14792 # inductors   =       0
  # mutual_inds =       0 # vccs       =       0 # vcvs        =       0
  # cccs        =       0 # ccvs       =       0 # volt_srcs   =      17
  # curr_srcs   =       0 # diodes     =       0 # bjts        =       0
  # jfets       =       0 # mosfets    =     372 # U elements  =       0
  # T elements  =       0 # W elements =       0 # B elements  =       0
  # S elements  =       0 # P elements =       0 # va device   =       0


  ******  Runtime Statistics (seconds)  ******

  analysis           time    # points   tot. iter  conv.iter
  op point           2.93           1         521
  transient        348.64         101       82791       10522 rev=        50
  readin             0.38
  errchk             0.14
  setup              0.38
  output             0.00


           total memory used        15738  kbytes
           total cpu time          352.46 seconds
           total elapsed time      358.16 seconds
           job started at     14:06:40 06/08/2013
           job ended   at     14:12:38 06/08/2013


 lic: Release hspice token(s) 
