Using: /usr/bin/time -p /vol/synopsys2010/hspice_vD-2010.03-SP2/hspice/linux/hspice RIPPLE_layout.sp
 ****** HSPICE -- D-2010.03-SP2 32-BIT (Aug 26 2010) linux ******               
  Copyright (C) 2010 Synopsys, Inc. All Rights Reserved.                        
  Unpublished-rights reserved under US copyright laws.
  This program is protected by law and is subject to the 
  terms and conditions of the license agreement from Synopsys.
  Use of this program is your acceptance to be bound by the 
  license agreement. HSPICE is the trademark of Synopsys, Inc.
  Input File: RIPPLE_layout.sp                                                  
 lic:  
 lic: FLEXlm: v10.8 
 lic: USER:   sjz474               HOSTNAME: batgirl.ece.northwestern.edu 
 lic: HOSTID: 1803731fda0b         PID:      21971 
 lic: Using FLEXlm license file: 
 lic: -1@cadfs.ece.northwestern.edu 
 lic: Checkout 1 hspice 
 lic: License/Maintenance for hspice will expire on 15-oct-2013/2012.06 
 lic: 1(in_use)/50(total) FLOATING license(s) on SERVER cadfs.ece.northwestern.e
 lic:   
 Init: read install configuration file: /vol/synopsys2010/hspice_vD-2010.03-SP2/hspice/meta.cfg
 **warning** Warning(s) associated with encrypted block(s) were suppressed due to encrypted content.
1****** HSPICE -- D-2010.03-SP2 32-BIT (Aug 26 2010) linux ******               
 ******  
 .include

  ******  circuit name directory
 circuit number to circuit name directory
   number circuitname                     definition         multiplier
        0 main circuit
        1 x1.                             ripple             1.00 
        2 x1.x_pm_ripple%xi7/xi0/net9.    pm_ripple%xi7/xi0/net9
                                                                 1.00 
        3 x1.x_pm_ripple%xi8/xi5/net9.    pm_ripple%xi8/xi5/net9
                                                                 1.00 
        4 x1.x_pm_ripple%xi8/xi0/net9.    pm_ripple%xi8/xi0/net9
                                                                 1.00 
        5 x1.x_pm_ripple%xi9/xi5/net9.    pm_ripple%xi9/xi5/net9
                                                                 1.00 
        6 x1.x_pm_ripple%xi9/xi0/net9.    pm_ripple%xi9/xi0/net9
                                                                 1.00 
        7 x1.x_pm_ripple%xi16/xi5/net9.   pm_ripple%xi16/xi5/net9
                                                                 1.00 
        8 x1.x_pm_ripple%xi16/xi0/net9.   pm_ripple%xi16/xi0/net9
                                                                 1.00 
        9 x1.x_pm_ripple%xi11/xi5/net9.   pm_ripple%xi11/xi5/net9
                                                                 1.00 
       10 x1.x_pm_ripple%xi11/xi0/net9.   pm_ripple%xi11/xi0/net9
                                                                 1.00 
       11 x1.x_pm_ripple%xi12/xi5/net9.   pm_ripple%xi12/xi5/net9
                                                                 1.00 
       12 x1.x_pm_ripple%xi12/xi0/net9.   pm_ripple%xi12/xi0/net9
                                                                 1.00 
       13 x1.x_pm_ripple%xi13/xi5/net9.   pm_ripple%xi13/xi5/net9
                                                                 1.00 
       14 x1.x_pm_ripple%xi13/xi0/net9.   pm_ripple%xi13/xi0/net9
                                                                 1.00 
       15 x1.x_pm_ripple%xi14/xi5/net9.   pm_ripple%xi14/xi5/net9
                                                                 1.00 
       16 x1.x_pm_ripple%xi14/xi0/net9.   pm_ripple%xi14/xi0/net9
                                                                 1.00 
       17 x1.x_pm_ripple%xi7/xi2/net8.    pm_ripple%xi7/xi2/net8
                                                                 1.00 
       18 x1.x_pm_ripple%xi8/xi8/net8.    pm_ripple%xi8/xi8/net8
                                                                 1.00 
       19 x1.x_pm_ripple%xi8/xi9/net8.    pm_ripple%xi8/xi9/net8
                                                                 1.00 
       20 x1.x_pm_ripple%xi9/xi8/net8.    pm_ripple%xi9/xi8/net8
                                                                 1.00 
       21 x1.x_pm_ripple%xi9/xi9/net8.    pm_ripple%xi9/xi9/net8
                                                                 1.00 
       22 x1.x_pm_ripple%xi16/xi8/net8.   pm_ripple%xi16/xi8/net8
                                                                 1.00 
       23 x1.x_pm_ripple%xi16/xi9/net8.   pm_ripple%xi16/xi9/net8
                                                                 1.00 
       24 x1.x_pm_ripple%xi11/xi8/net8.   pm_ripple%xi11/xi8/net8
                                                                 1.00 
       25 x1.x_pm_ripple%xi11/xi9/net8.   pm_ripple%xi11/xi9/net8
                                                                 1.00 
       26 x1.x_pm_ripple%xi12/xi8/net8.   pm_ripple%xi12/xi8/net8
                                                                 1.00 
       27 x1.x_pm_ripple%xi12/xi9/net8.   pm_ripple%xi12/xi9/net8
                                                                 1.00 
       28 x1.x_pm_ripple%xi13/xi8/net8.   pm_ripple%xi13/xi8/net8
                                                                 1.00 
       29 x1.x_pm_ripple%xi13/xi9/net8.   pm_ripple%xi13/xi9/net8
                                                                 1.00 
       30 x1.x_pm_ripple%xi14/xi8/net8.   pm_ripple%xi14/xi8/net8
                                                                 1.00 
       31 x1.x_pm_ripple%xi14/xi9/net8.   pm_ripple%xi14/xi9/net8
                                                                 1.00 
       32 x1.x_pm_ripple%xi8/net11.       pm_ripple%xi8/net11
                                                                 1.00 
       33 x1.x_pm_ripple%xi8/net14.       pm_ripple%xi8/net14
                                                                 1.00 
       34 x1.x_pm_ripple%xi8/net7.        pm_ripple%xi8/net7
                                                                 1.00 
       35 x1.x_pm_ripple%xi8/xi7/net7.    pm_ripple%xi8/xi7/net7
                                                                 1.00 
       36 x1.x_pm_ripple%xi9/net11.       pm_ripple%xi9/net11
                                                                 1.00 
       37 x1.x_pm_ripple%xi9/net14.       pm_ripple%xi9/net14
                                                                 1.00 
       38 x1.x_pm_ripple%xi9/net7.        pm_ripple%xi9/net7
                                                                 1.00 
       39 x1.x_pm_ripple%xi9/xi7/net7.    pm_ripple%xi9/xi7/net7
                                                                 1.00 
       40 x1.x_pm_ripple%xi16/net11.      pm_ripple%xi16/net11
                                                                 1.00 
       41 x1.x_pm_ripple%xi16/net14.      pm_ripple%xi16/net14
                                                                 1.00 
       42 x1.x_pm_ripple%xi16/net7.       pm_ripple%xi16/net7
                                                                 1.00 
       43 x1.x_pm_ripple%xi16/xi7/net7.   pm_ripple%xi16/xi7/net7
                                                                 1.00 
       44 x1.x_pm_ripple%xi11/net11.      pm_ripple%xi11/net11
                                                                 1.00 
       45 x1.x_pm_ripple%xi11/net14.      pm_ripple%xi11/net14
                                                                 1.00 
       46 x1.x_pm_ripple%xi11/net7.       pm_ripple%xi11/net7
                                                                 1.00 
       47 x1.x_pm_ripple%xi11/xi7/net7.   pm_ripple%xi11/xi7/net7
                                                                 1.00 
       48 x1.x_pm_ripple%xi12/net11.      pm_ripple%xi12/net11
                                                                 1.00 
       49 x1.x_pm_ripple%xi12/net14.      pm_ripple%xi12/net14
                                                                 1.00 
       50 x1.x_pm_ripple%xi12/net7.       pm_ripple%xi12/net7
                                                                 1.00 
       51 x1.x_pm_ripple%xi12/xi7/net7.   pm_ripple%xi12/xi7/net7
                                                                 1.00 
       52 x1.x_pm_ripple%xi13/net11.      pm_ripple%xi13/net11
                                                                 1.00 
       53 x1.x_pm_ripple%xi13/net14.      pm_ripple%xi13/net14
                                                                 1.00 
       54 x1.x_pm_ripple%xi13/net7.       pm_ripple%xi13/net7
                                                                 1.00 
       55 x1.x_pm_ripple%xi13/xi7/net7.   pm_ripple%xi13/xi7/net7
                                                                 1.00 
       56 x1.x_pm_ripple%xi14/net11.      pm_ripple%xi14/net11
                                                                 1.00 
       57 x1.x_pm_ripple%xi14/net14.      pm_ripple%xi14/net14
                                                                 1.00 
       58 x1.x_pm_ripple%xi14/net7.       pm_ripple%xi14/net7
                                                                 1.00 
       59 x1.x_pm_ripple%xi14/xi7/net7.   pm_ripple%xi14/xi7/net7
                                                                 1.00 
       60 x1.x_pm_ripple%b<0>.            pm_ripple%b<0>     1.00 
       61 x1.x_pm_ripple%net28.           pm_ripple%net28    1.00 
       62 x1.x_pm_ripple%net29.           pm_ripple%net29    1.00 
       63 x1.x_pm_ripple%net30.           pm_ripple%net30    1.00 
       64 x1.x_pm_ripple%net04.           pm_ripple%net04    1.00 
       65 x1.x_pm_ripple%net31.           pm_ripple%net31    1.00 
       66 x1.x_pm_ripple%net32.           pm_ripple%net32    1.00 
       67 x1.x_pm_ripple%net33.           pm_ripple%net33    1.00 
       68 x1.x_pm_ripple%vdd!.            pm_ripple%vdd!     1.00 
       69 x1.x_pm_ripple%gnd!.            pm_ripple%gnd!     1.00 
       70 x1.x_pm_ripple%a<0>.            pm_ripple%a<0>     1.00 
       71 x1.x_pm_ripple%s<0>.            pm_ripple%s<0>     1.00 
       72 x1.x_pm_ripple%s<1>.            pm_ripple%s<1>     1.00 
       73 x1.x_pm_ripple%s<2>.            pm_ripple%s<2>     1.00 
       74 x1.x_pm_ripple%s<3>.            pm_ripple%s<3>     1.00 
       75 x1.x_pm_ripple%s<4>.            pm_ripple%s<4>     1.00 
       76 x1.x_pm_ripple%s<5>.            pm_ripple%s<5>     1.00 
       77 x1.x_pm_ripple%s<6>.            pm_ripple%s<6>     1.00 
       78 x1.x_pm_ripple%s<7>.            pm_ripple%s<7>     1.00 
       79 x1.x_pm_ripple%cout.            pm_ripple%cout     1.00 
       80 x1.x_pm_ripple%b<1>.            pm_ripple%b<1>     1.00 
       81 x1.x_pm_ripple%a<1>.            pm_ripple%a<1>     1.00 
       82 x1.x_pm_ripple%b<2>.            pm_ripple%b<2>     1.00 
       83 x1.x_pm_ripple%a<2>.            pm_ripple%a<2>     1.00 
       84 x1.x_pm_ripple%b<3>.            pm_ripple%b<3>     1.00 
       85 x1.x_pm_ripple%a<3>.            pm_ripple%a<3>     1.00 
       86 x1.x_pm_ripple%b<4>.            pm_ripple%b<4>     1.00 
       87 x1.x_pm_ripple%a<4>.            pm_ripple%a<4>     1.00 
       88 x1.x_pm_ripple%b<5>.            pm_ripple%b<5>     1.00 
       89 x1.x_pm_ripple%a<5>.            pm_ripple%a<5>     1.00 
       90 x1.x_pm_ripple%b<6>.            pm_ripple%b<6>     1.00 
       91 x1.x_pm_ripple%a<6>.            pm_ripple%a<6>     1.00 
       92 x1.x_pm_ripple%b<7>.            pm_ripple%b<7>     1.00 
       93 x1.x_pm_ripple%a<7>.            pm_ripple%a<7>     1.00 
1****** HSPICE -- D-2010.03-SP2 32-BIT (Aug 26 2010) linux ******               
 ******  
 .include

  ******  mos   model parameters tnom=  25.000 temp=  25.000 *****
 
Model Name: nmos_vtg  

 BSIM4 Model (Level 54)

    MOBMOD = 0
    BINUNIT = 1
    PARAMCHK = 1
    CAPMOD = 2
    DIOMOD = 1
    RDSMOD = 0
    TRNQSMOD = 0
    ACNQSMOD = 0
    RBODYMOD = 1
    RGATEMOD = 1
    PERMOD = 1
    GEOMOD = 1
    RGEOMOD = 0
    FNOIMOD = 1
    TNOIMOD = 0
    IGCMOD = 1
    IGBMOD = 1
    STIMOD = 0
    VERSION =      4 
    TOXREF = 1.14e-09 
    TOXE = 1.14e-09 
    TOXP =  1e-09 
    TOXM = 1.14e-09 
    DTOX = 1.4e-10 
    EPSROX =    3.9 
    CDSC =      0 
    CDSCB =      0 
    CDSCD =      0 
    CIT =      0 
    NFACTOR =    2.1 
    XJ = 1.98e-08 
    VSAT = 1.23e+05 
    A0 =      1 
    AGS =      0 
    A1 =      0 
    A2 =      1 
    AT = 3.3e+04 
    KETA =   0.04 
    NSUB =  6e+16 
    NDEP = 3.4e+18 
    NSD =  2e+20 
    NGATE =  3e+20 
    GAMMA1 =      0 
    GAMMA2 =      0 
    VBX =      0 
    VBM =     -3 
    XT = 1.55e-07 
    K1 =    0.4 
    KT1 =  -0.11 
    KT1L =      0 
    KT2 =  0.022 
    K2 =      0 
    K3 =      0 
    K3B =      0 
    LPE0 =      0 
    LPEB =      0 
    DVTP0 =  1e-10 
    DVTP1 =    0.1 
    W0 = 2.5e-06 
    DVT0 =      1 
    DVT1 =      2 
    DVT2 =      0 
    DVT0W =      0 
    DVT1W =      0 
    DVT2W =      0 
    DROUT =    0.5 
    DSUB =    0.1 
    VTH0 = 0.4106 
    EU =   1.67 
    UA =  6e-10 
    UA1 = 4.31e-09 
    UB = 1.2e-18 
    UB1 = 7.61e-18 
    UC =      0 
    UC1 = -5.6e-11 
    U0 =  0.045 
    UTE =   -1.5 
    VOFF =  -0.13 
    VOFFL =      0 
    MINV =   0.05 
    FPROUT =    0.2 
    PDITS =   0.08 
    PDITSD =   0.23 
    PDITSL = 2.3e+06 
    DELTA =   0.01 
    RDSW =    155 
    RDSWMIN =      0 
    RDWMIN =      0 
    RSWMIN =      0 
    RDW =     80 
    RSW =     80 
    PRWG =      0 
    PRWB =      0 
    PRT =      0 
    ETA0 =  0.006 
    ETAB =      0 
    PCLM =   0.02 
    PDIBLC1 =  0.001 
    PDIBLC2 =  0.001 
    PDIBLCB = -0.005 
    PSCBE1 = 8.14e+08 
    PSCBE2 =  1e-07 
    PVAG =  1e-20 
    WR =      1 
    DWG =      0 
    DWB =      0 
    XW =      0 
    XWREF =      0 
    XL = -2e-08 
    XLREF = -2e-08 
    B0 =      0 
    B1 =      0 
    ALPHA0 =  0.074 
    ALPHA1 =  0.005 
    AGIDL = 0.0002 
    BGIDL = 2.1e+09 
    CGIDL = 0.0002 
    PHIN =      0 
    EGIDL =    0.8 
    AIGC =   0.02 
    BIGC = 0.0027 
    CIGC =  0.002 
    AIGSD =   0.02 
    BIGSD = 0.0027 
    CIGSD =  0.002 
    AIGBACC =  0.012 
    BIGBACC = 0.0028 
    CIGBACC =  0.002 
    AIGBINV =  0.014 
    BIGBINV =  0.004 
    CIGBINV =  0.004 
    NIGC =      1 
    NIGBINV =      3 
    NIGBACC =      1 
    NTOX =      1 
    EIGBINV =    1.1 
    PIGCD =      1 
    POXEDGE =      1 
    XRCRG1 =     12 
    TNOIA =    1.5 
    TNOIB =    3.5 
    NTNOI =      1 
    XRCRG2 =      5 
    BETA0 =     30 
    IJTHDFWD =   0.01 
    IJTHSFWD =   0.01 
    IJTHDREV =  0.001 
    IJTHSREV =  0.001 
    XJBVD =      1 
    XJBVS =      1 
    BVD =     10 
    BVS =     10 
    VFB =  -0.55 
    GBMIN =  1e-10 
    RBDB =     15 
    RBPB =      5 
    RBSB =     15 
    RBPS =     15 
    RBPD =     15 
    CGSL = 2.653e-10 
    CGDL = 2.653e-10 
    CKAPPAS =   0.03 
    CKAPPAD =   0.03 
    CF = 1.289e-10 
    CLC =  1e-07 
    CLE =    0.6 
    DWC =  5e-09 
    DLC = 3.75e-09 
    DLCIG = 3.75e-09 
    DWJ =      0 
    VFBCV =     -1 
    ACDE =      1 
    MOIN =     15 
    NOFF =    0.9 
    VOFFCV =   0.02 
    DMCG =      0 
    DMCI =      0 
    DMDG =      0 
    DMCGT =      0 
    XGW =      0 
    XGL =      0 
    RSHG =    0.4 
    NGCON =      1 
    TCJ =  0.001 
    TPB =  0.005 
    TCJSW =  0.001 
    TPBSW =  0.005 
    TCJSWG =  0.001 
    TPBSWG =  0.005 
    SK0 =      0 
    SK1 =      0 
    SK2 =      0 
    SL =  2e-06 
    SW =  2e-06 
    K =      0 
    TNOM =  300.1 
    CGSO = 1.1e-10 
    CGDO = 1.1e-10 
    CGBO = 2.56e-11 
    XPART =      0 
    RSH =      5 
    JSS = 0.0001 
    JSWS =  1e-11 
    JSWGS =  1e-10 
    PBS =      1 
    MJS =    0.5 
    PBSWS =      1 
    MJSWS =   0.33 
    CJS = 0.0005 
    CJSWS =  5e-10 
    NJS =      1 
    PBSWGS =      1 
    MJSWGS =   0.33 
    CJSWGS =  3e-10 
    XTIS =      3 
    JSD = 0.0001 
    JSWD =  1e-11 
    JSWGD =  1e-10 
    PBD =      1 
    MJD =    0.5 
    PBSWD =      1 
    MJSWD =   0.33 
    CJD = 0.0005 
    CJSWD =  5e-10 
    NJD =      1 
    PBSWGD =      1 
    MJSWGD =   0.33 
    CJSWGD =  5e-10 
    XTID =      3 
    LMLT =      1 
    WMLT =      1 
    LINT = 3.75e-09 
    LL =      0 
    LLC =      0 
    LLN =      1 
    LW =      0 
    LWC =      0 
    LWN =      1 
    LWL =      0 
    LWLC =      0 
    LMIN =      0 
    LMAX =      1 
    WINT =  5e-09 
    WL =      0 
    WLC =      0 
    WLN =      1 
    WW =      0 
    WWC =      0 
    WWN =      1 
    WWL =      0 
    WWLC =      0 
    WMIN =      0 
    WMAX =      1 
    NOIA = 6.25e+41 
    NOIB = 3.125e+26 
    NOIC = 8.75e+09 
    EM = 4.1e+07 
    EF =      1 
    AF =      1 
    KF =      0 
    TRS =      0 
    TRD =      0 
 

 
Model Name: pmos_vtg  

 BSIM4 Model (Level 54)

    MOBMOD = 0
    BINUNIT = 1
    PARAMCHK = 1
    CAPMOD = 2
    DIOMOD = 1
    RDSMOD = 0
    TRNQSMOD = 0
    ACNQSMOD = 0
    RBODYMOD = 1
    RGATEMOD = 1
    PERMOD = 1
    GEOMOD = 1
    RGEOMOD = 0
    FNOIMOD = 1
    TNOIMOD = 0
    IGCMOD = 1
    IGBMOD = 1
    STIMOD = 0
    VERSION =      4 
    TOXREF = 1.3e-09 
    TOXE = 1.26e-09 
    TOXP =  1e-09 
    TOXM = 1.26e-09 
    DTOX = 2.6e-10 
    EPSROX =    3.9 
    CDSC =      0 
    CDSCB =      0 
    CDSCD =      0 
    CIT =      0 
    NFACTOR =   2.22 
    XJ = 1.98e-08 
    VSAT = 6.2e+04 
    A0 =      1 
    AGS =  1e-20 
    A1 =      0 
    A2 =      1 
    AT = 3.3e+04 
    KETA = -0.047 
    NSUB =  6e+16 
    NDEP = 2.44e+18 
    NSD =  2e+20 
    NGATE =  2e+20 
    GAMMA1 =      0 
    GAMMA2 =      0 
    VBX =      0 
    VBM =     -3 
    XT = 1.55e-07 
    K1 =    0.4 
    KT1 =  -0.11 
    KT1L =      0 
    KT2 =  0.022 
    K2 =  -0.01 
    K3 =      0 
    K3B =      0 
    LPE0 =      0 
    LPEB =      0 
    DVTP0 =  1e-11 
    DVTP1 =   0.05 
    W0 = 2.5e-06 
    DVT0 =      1 
    DVT1 =      2 
    DVT2 = -0.032 
    DVT0W =      0 
    DVT1W =      0 
    DVT2W =      0 
    DROUT =   0.56 
    DSUB =    0.1 
    VTH0 = -0.3842 
    EU =      1 
    UA =  2e-09 
    UA1 = 4.31e-09 
    UB =  5e-19 
    UB1 = 7.61e-18 
    UC =      0 
    UC1 = -5.6e-11 
    U0 =   0.02 
    UTE =   -1.5 
    VOFF = -0.126 
    VOFFL =      0 
    MINV =   0.05 
    FPROUT =    0.2 
    PDITS =   0.08 
    PDITSD =   0.23 
    PDITSL = 2.3e+06 
    DELTA =   0.01 
    RDSW =    155 
    RDSWMIN =      0 
    RDWMIN =      0 
    RSWMIN =      0 
    RDW =     75 
    RSW =     75 
    PRWG =      0 
    PRWB =      0 
    PRT =      0 
    ETA0 = 0.0055 
    ETAB =      0 
    PCLM =   0.12 
    PDIBLC1 =  0.001 
    PDIBLC2 =  0.001 
    PDIBLCB = 3.4e-08 
    PSCBE1 = 8.14e+08 
    PSCBE2 = 9.58e-07 
    PVAG =  1e-20 
    WR =      1 
    DWG =      0 
    DWB =      0 
    XW =      0 
    XWREF =      0 
    XL = -2e-08 
    XLREF = -2e-08 
    B0 =      0 
    B1 =      0 
    ALPHA0 =  0.074 
    ALPHA1 =  0.005 
    AGIDL = 0.0002 
    BGIDL = 2.1e+09 
    CGIDL = 0.0002 
    PHIN =      0 
    EGIDL =    0.8 
    AIGC = 0.01069 
    BIGC = 0.001261 
    CIGC = 0.0008 
    AIGSD = 0.01069 
    BIGSD = 0.001261 
    CIGSD = 0.0008 
    AIGBACC =  0.012 
    BIGBACC = 0.0028 
    CIGBACC =  0.002 
    AIGBINV =  0.014 
    BIGBINV =  0.004 
    CIGBINV =  0.004 
    NIGC =      1 
    NIGBINV =      3 
    NIGBACC =      1 
    NTOX =      1 
    EIGBINV =    1.1 
    PIGCD =      1 
    POXEDGE =      1 
    XRCRG1 =     12 
    TNOIA =    1.5 
    TNOIB =    3.5 
    NTNOI =      1 
    XRCRG2 =      5 
    BETA0 =     30 
    IJTHDFWD =   0.01 
    IJTHSFWD =   0.01 
    IJTHDREV =  0.001 
    IJTHSREV =  0.001 
    XJBVD =      1 
    XJBVS =      1 
    BVD =     10 
    BVS =     10 
    VFB =   0.55 
    GBMIN =  1e-10 
    RBDB =     15 
    RBPB =      5 
    RBSB =     15 
    RBPS =     15 
    RBPD =     15 
    CGSL = 2.653e-10 
    CGDL = 2.653e-10 
    CKAPPAS =   0.03 
    CKAPPAD =   0.03 
    CF = 1.267e-10 
    CLC =  1e-07 
    CLE =    0.6 
    DWC =  5e-09 
    DLC = 3.75e-09 
    DLCIG = 3.75e-09 
    DWJ =      0 
    VFBCV =     -1 
    ACDE =      1 
    MOIN =     15 
    NOFF =    0.9 
    VOFFCV =   0.02 
    DMCG =      0 
    DMCI =      0 
    DMDG =      0 
    DMCGT =      0 
    XGW =      0 
    XGL =      0 
    RSHG =    0.4 
    NGCON =      1 
    TCJ =  0.001 
    TPB =  0.005 
    TCJSW =  0.001 
    TPBSW =  0.005 
    TCJSWG =  0.001 
    TPBSWG =  0.005 
    SK0 =      0 
    SK1 =      0 
    SK2 =      0 
    SL =  2e-06 
    SW =  2e-06 
    K =      0 
    TNOM =  300.1 
    CGSO = 1.1e-10 
    CGDO = 1.1e-10 
    CGBO = 2.56e-11 
    XPART =      0 
    RSH =      5 
    JSS = 0.0001 
    JSWS =  1e-11 
    JSWGS =  1e-10 
    PBS =      1 
    MJS =    0.5 
    PBSWS =      1 
    MJSWS =   0.33 
    CJS = 0.0005 
    CJSWS =  5e-10 
    NJS =      1 
    PBSWGS =      1 
    MJSWGS =   0.33 
    CJSWGS =  3e-10 
    XTIS =      3 
    JSD = 0.0001 
    JSWD =  1e-11 
    JSWGD =  1e-10 
    PBD =      1 
    MJD =    0.5 
    PBSWD =      1 
    MJSWD =   0.33 
    CJD = 0.0005 
    CJSWD =  5e-10 
    NJD =      1 
    PBSWGD =      1 
    MJSWGD =   0.33 
    CJSWGD =  5e-10 
    XTID =      3 
    LMLT =      1 
    WMLT =      1 
    LINT = 3.75e-09 
    LL =      0 
    LLC =      0 
    LLN =      1 
    LW =      0 
    LWC =      0 
    LWN =      1 
    LWL =      0 
    LWLC =      0 
    LMIN =      0 
    LMAX =      1 
    WINT =  5e-09 
    WL =      0 
    WLC =      0 
    WLN =      1 
    WW =      0 
    WWC =      0 
    WWN =      1 
    WWL =      0 
    WWLC =      0 
    WMIN =      0 
    WMAX =      1 
    NOIA = 6.188e+40 
    NOIB = 1.5e+25 
    NOIC = 8.75e+09 
    EM = 4.1e+07 
    EF =      1 
    AF =      1 
    KF =      0 
    TRS =      0 
    TRD =      0 
 

  **info** (/home/sjz474/simulation/RIPPLE/hspiceD/schematic/netlist/_graphical_stimuli.scs:1) DC voltage reset to initial transient source value              in source        0:vb<0>               new dc=  0.1800D+01
 Warning:  Acde = 1 may be too small in BSIM4 model nmos_vtg with w=2.8e-07 l=5e-08.

 Warning:  Acde = 1 may be too small in BSIM4 model nmos_vtg with w=1.63e-06 l=5e-08.

 Warning:  Acde = 1 may be too small in BSIM4 model nmos_vtg with w=1.63e-06 l=5e-08.

 Warning:  Acde = 1 may be too small in BSIM4 model nmos_vtg with w=1.44e-06 l=5e-08.

 Warning:  Acde = 1 may be too small in BSIM4 model nmos_vtg with w=7.2e-07 l=5e-08.

 Warning:  Acde = 1 may be too small in BSIM4 model nmos_vtg with w=7.2e-07 l=5e-08.

 Warning:  Acde = 1 may be too small in BSIM4 model pmos_vtg with w=3e-07 l=5e-08.

 Warning:  Acde = 1 may be too small in BSIM4 model pmos_vtg with w=1.44e-06 l=5e-08.

 Warning:  Acde = 1 may be too small in BSIM4 model pmos_vtg with w=1.44e-06 l=5e-08.

 Warning:  Acde = 1 may be too small in BSIM4 model pmos_vtg with w=1.96e-06 l=5e-08.

 Warning:  Acde = 1 may be too small in BSIM4 model pmos_vtg with w=1.56e-06 l=5e-08.

 Warning:  Acde = 1 may be too small in BSIM4 model pmos_vtg with w=1.56e-06 l=5e-08.

 
      
 *****************************************************************
 ******  option summary
 ******
 runlvl  = 3         bypass  = 2         
  Opening plot unit= 15
 file=RIPPLE_layout.pa0                                                        


 **info** dc convergence failure, 
 resetting dcon option to 1 and retrying

 **info** dc convergence successful
 you can increase the efficiency of the
 operating point calculation by setting dcon= 1
 in the .option statement
1****** HSPICE -- D-2010.03-SP2 32-BIT (Aug 26 2010) linux ******               
 ******  
 .include

  ******  operating point information tnom=  25.000 temp=  25.000 *****
 ***** operating point status is all       simulation time is     0.     
     node    =voltage       node    =voltage       node    =voltage

 + 0:a<0>    =   1.8000   0:a<1>    =   0.       0:a<2>    =   1.8000 
 + 0:a<3>    =   0.       0:a<4>    =   1.8000   0:a<5>    =   1.8000 
 + 0:a<6>    =   0.       0:a<7>    =   0.       0:b<0>    =   1.8000 
 + 0:b<1>    =   1.8000   0:b<2>    =   0.       0:b<3>    =   1.8000 
 + 0:b<4>    =   0.       0:b<5>    =   1.8000   0:b<6>    =   1.8000 
 + 0:b<7>    =   0.       0:cout    =  22.4657m  0:s<0>    =  20.6316m
 + 0:s<1>    =  35.8749m  0:s<2>    =  34.4713m  0:s<3>    =  35.7587m
 + 0:s<4>    =  33.5080m  0:s<5>    =   1.7285   0:s<6>    =  35.1848m
 + 0:s<7>    =   1.7181   0:vdd!    =   1.8000   1:n_gnd!_x=  20.5941m
 + 1:n_xi12/x=   1.7280   1:n_net31_=   1.7285   1:n_xi12/x=   1.7280 
 + 1:n_xi12/n=  46.0113m  1:n_vdd!_x=   1.7283   1:n_net31_=   1.7285 
 + 1:n_vdd!_x=   1.7277   1:n_xi12/n=  23.0489m  1:n_xi12/x=   1.7278 
 + 1:n_gnd!_x=  20.4388m  1:n_xi12/n=  23.0956m  1:n_xi12/x=   1.7279 
 + 1:n_vdd!_x=   1.7269   1:n_a<5>_x=   1.7994   1:n_gnd!_x=  20.7907m
 + 1:n_xi12/x=  32.7519m  1:n_b<5>_x=   1.7994   1:n_xi12/x=  33.2136m
 + 1:n_a<5>_x=   1.7996   1:n_vdd!_x=   1.7269   1:n_b<5>_x=   1.7996 
 + 1:n_vdd!_x=   1.7267   1:n_xi12/n=   1.7226   1:n_xi12/x=  32.9751m
 + 1:n_gnd!_x=  20.4130m  1:n_xi12/n=   1.7227   1:n_xi12/x=  33.1932m
 + 1:n_vdd!_x=   1.7266   1:n_xi13/x=  20.8989m  1:n_xi13/n=   1.7185 
 + 1:n_gnd!_x=  20.4077m  1:n_xi13/x=  20.9027m  1:n_xi13/n=  22.7061m
 + 1:n_xi13/n=   1.7185   1:n_vdd!_x=   1.7221   1:n_vdd!_x=   1.7223 
 + 1:n_xi13/x=  20.9063m  1:n_xi13/n=  22.7061m  1:n_xi13/x=  29.8119m
 + 1:n_xi13/n=   1.7966   1:n_gnd!_x=  20.8917m  1:n_s<6>_x=  35.1848m
 + 1:n_net32_=   1.7206   1:n_xi13/x=  29.8122m  1:n_net32_=   1.7202 
 + 1:n_xi13/x=  29.8238m  1:n_xi13/n=   1.7966   1:n_vdd!_x=   1.7253 
 + 1:n_s<6>_x=  35.1896m  1:n_net32_=   1.7206   1:n_xi13/n=   1.7967 
 + 1:n_xi13/n=   1.7967   1:n_net32_=   1.7202   1:n_xi13/x=   1.7188 
 + 1:n_a<6>_x= 713.9897u  1:n_gnd!_x=  20.8934m  1:n_xi13/n=   1.7970 
 + 1:n_b<6>_x=   1.8000   1:n_xi13/x=   1.7188   1:n_b<6>_x=   1.7997 
 + 1:n_xi13/x=   1.7188   1:n_a<6>_x= 713.8004u  1:n_vdd!_x=   1.7253 
 + 1:n_xi13/n=   1.7970   1:n_b<6>_x=   1.8000   1:n_a<6>_x= 688.1341u
 + 1:n_a<6>_x= 711.6343u  1:n_b<6>_x=   1.7997   1:n_net33_=   1.7181 
 + 1:n_xi13/x=  21.0357m  1:n_gnd!_x=  20.3811m  1:n_net33_=   1.7181 
 + 1:n_xi13/x=  21.2650m  1:n_vdd!_x=   1.7222   1:n_xi7/xi=  12.5444m
 + 1:n_xi13/n=   1.7962   1:n_gnd!_x=  20.8048m  1:n_xi13/x=  29.6841m
 + 1:n_net32_=   1.7203   1:n_xi13/x=  30.0233m  1:n_xi13/n=   1.7964 
 + 1:n_vdd!_x=   1.7234   1:n_a<0>_x=   1.7999   1:n_net32_=   1.7205 
 + 1:n_vdd!_x=   1.7230   1:n_xi13/n=   1.7186   1:n_xi13/x=  29.8809m
 + 1:n_gnd!_x=  20.4094m  1:n_xi13/n=   1.7187   1:n_xi13/x=  30.0975m
 + 1:n_gnd!_x=  90.3287u  1:n_vdd!_x=   1.7225   1:n_a<6>_x= 235.6874u
 + 1:n_gnd!_x=  20.4405m  1:n_xi13/x=   1.7222   1:n_b<6>_x=   1.8000 
 + 1:n_xi13/x=   1.7223   1:n_gnd!_x=  20.3761m  1:n_a<6>_x= 383.3078u
 + 1:n_vdd!_x=   1.7226   1:n_b<6>_x=   1.8000   1:n_vdd!_x=   1.7225 
 + 1:n_xi13/n=  22.6992m  1:n_xi13/x=   1.7220   1:n_gnd!_x=  20.4074m
 + 1:n_s<0>_x=  20.6316m  1:n_xi13/n=  22.7417m  1:n_xi13/x=   1.7221 
 + 1:n_vdd!_x=   1.7224   1:n_xi14/x=   1.7102   1:n_xi14/n=  23.1715m
 + 1:n_gnd!_x=  20.3955m  1:n_xi14/x=   1.7103   1:n_xi14/n=  23.0433m
 + 1:n_b<0>_x=   1.7999   1:n_xi14/n=  23.3161m  1:n_vdd!_x=   1.7201 
 + 1:n_vdd!_x=   1.7204   1:n_xi14/x=   1.7104   1:n_xi14/n=  23.1837m
 + 1:n_xi14/x=   1.7156   1:n_xi14/n=   4.6690m  1:n_xi7/xi=  12.5448m
 + 1:n_gnd!_x=  20.3943m  1:n_s<7>_x=   1.7181   1:n_net33_=   1.7181 
 + 1:n_xi14/x=   1.7156   1:n_net33_=   1.7181   1:n_xi14/x=   1.7156 
 + 1:n_xi14/n=   4.6688m  1:n_vdd!_x=   1.7216   1:n_s<7>_x=   1.7181 
 + 1:n_net33_=   1.7181   1:n_b<0>_x=   1.7988   1:n_xi14/n=   4.6416m
 + 1:n_xi14/n=   4.6620m  1:n_net33_=   1.7181   1:n_xi14/x=   1.7095 
 + 1:n_a<7>_x=  56.5521u  1:n_gnd!_x=  20.3960m  1:n_xi14/n=   3.9108m
 + 1:n_b<7>_x=   5.3187u  1:n_xi14/x=   1.7095   1:n_b<7>_x= 437.9412u
 + 1:n_xi7/xi=  12.5590m  1:n_xi14/x=   1.7096   1:n_a<7>_x=  56.3683u
 + 1:n_vdd!_x=   1.7216   1:n_xi14/n=   3.9108m  1:n_b<7>_x=   5.1348u
 + 1:n_a<7>_x=  25.9729u  1:n_a<7>_x=  25.2388u  1:n_b<7>_x= 433.2743u
 + 1:n_cout_x=  22.4304m  1:n_a<0>_x=   1.8000   1:n_xi14/x=   1.7101 
 + 1:n_gnd!_x=  20.3971m  1:n_cout_x=  22.4680m  1:n_xi14/x=   1.7102 
 + 1:n_vdd!_x=   1.7203   1:n_xi14/n=   4.5526m  1:n_gnd!_x=  20.3942m
 + 1:n_vdd!_x=   1.8000   1:n_xi14/x=   1.7205   1:n_net33_=   1.7181 
 + 1:n_xi14/x=   1.7206   1:n_xi14/n=   4.6946m  1:n_vdd!_x=   1.7208 
 + 1:n_net33_=   1.7181   1:n_vdd!_x=   1.7206   1:n_vdd!_x=   1.7872 
 + 1:n_xi14/n=  22.8252m  1:n_xi14/x=   1.7203   1:n_gnd!_x=  20.4002m
 + 1:n_xi14/n=  22.8684m  1:n_xi14/x=   1.7204   1:n_vdd!_x=   1.7204 
 + 1:n_s<0>_x=  20.6387m  1:n_a<7>_x= 231.2077u  1:n_gnd!_x=  20.3958m
 + 1:n_xi14/x=   1.7161   1:n_b<7>_x= 240.8814u  1:n_xi14/x=   1.7165 
 + 1:n_a<7>_x= 377.5834u  1:n_vdd!_x=   1.7203   1:n_b<0>_x=   1.7999 
 + 1:n_b<7>_x= 385.2061u  1:n_vdd!_x=   1.7203   1:n_xi14/n=  22.7233m
 + 1:n_xi14/x=   1.7159   1:n_gnd!_x=  20.3996m  1:n_xi14/n=  22.7637m
 + 1:n_xi14/x=   1.7161   1:n_vdd!_x=   1.7204   1:n_a<0>_x=   1.8000 
 + 1:n_xi7/xi=  12.5444m  1:n_xi7/xi=  12.5444m  1:n_xi7/xi=  12.5447m
 + 1:n_xi7/xi=  12.5444m  1:n_xi8/xi=  29.6066m  1:n_xi8/xi=  29.6066m
 + 1:n_xi8/xi=  29.6068m  1:n_xi8/xi=  29.6065m  1:n_a<0>_x=   1.8000 
 + 1:n_xi8/xi=   1.7732   1:n_xi8/xi=   1.7732   1:n_xi8/xi=   1.7732 
 + 1:n_xi8/xi=   1.7732   1:n_xi9/xi=  29.1977m  1:n_xi9/xi=  29.1977m
 + 1:n_xi9/xi=  29.1979m  1:n_xi9/xi=  29.1977m  1:n_b<0>_x=   1.7988 
 + 1:n_xi9/xi=  25.6425m  1:n_xi9/xi=  25.6425m  1:n_xi9/xi=  25.6428m
 + 1:n_xi9/xi=  25.6425m  1:n_xi16/x=  30.1217m  1:n_xi16/x=  30.1217m
 + 1:n_xi16/x=  30.1219m  1:n_xi16/x=  30.1217m  1:n_xi16/x=   1.7434 
 + 1:n_xi16/x=   1.7434   1:n_xi16/x=   1.7434   1:n_xi16/x=   1.7434 
 + 1:n_xi11/x=  28.6928m  1:n_xi11/x=  28.6928m  1:n_xi11/x=  28.6930m
 + 1:n_xi11/x=  28.6928m  1:n_a<0>_x=   1.7995   1:n_xi11/x=  25.5976m
 + 1:n_xi11/x=  25.5976m  1:n_xi11/x=  25.5979m  1:n_xi11/x=  25.5976m
 + 1:n_xi12/x=   1.7268   1:n_xi12/x=   1.7268   1:n_xi12/x=   1.7268 
 + 1:n_xi12/x=   1.7268   1:n_gnd!_x=   6.1257m  1:n_xi12/x=  36.3407m
 + 1:n_xi12/x=  36.3407m  1:n_xi12/x=  36.3410m  1:n_xi12/x=  36.3407m
 + 1:n_xi13/x=  29.8119m  1:n_xi13/x=  29.8120m  1:n_xi13/x=  29.8122m
 + 1:n_xi13/x=  29.8119m  1:n_xi7/xi=  19.8939m  1:n_xi13/x=   1.7188 
 + 1:n_xi13/x=   1.7188   1:n_xi13/x=   1.7188   1:n_xi13/x=   1.7188 
 + 1:n_xi14/x=   1.7156   1:n_xi14/x=   1.7156   1:n_xi14/x=   1.7156 
 + 1:n_xi14/x=   1.7156   1:n_b<0>_x=   1.7994   1:n_xi14/x=   1.7095 
 + 1:n_xi14/x=   1.7095   1:n_xi14/x=   1.7095   1:n_xi14/x=   1.7095 
 + 1:n_xi7/xi=  20.2158m  1:n_xi7/xi=  20.2056m  1:n_xi7/xi=  20.2057m
 + 1:n_xi7/xi=  20.2051m  1:n_xi7/xi=  20.4209m  1:n_xi7/xi=  20.2650m
 + 1:n_xi7/xi=  20.0864m  1:n_xi7/xi=  20.0132m  1:n_xi7/xi=  20.1955m
 + 1:n_xi7/xi=  20.0080m  1:n_xi7/xi=  20.1134m  1:n_xi8/xi=  30.9971m
 + 1:n_xi8/xi=  30.9885m  1:n_xi8/xi=  30.9886m  1:n_a<0>_x=   1.7998 
 + 1:n_xi8/xi=  30.9802m  1:n_xi8/xi=  31.0282m  1:n_xi8/xi=  30.8848m
 + 1:n_xi8/xi=  30.8263m  1:n_xi8/xi=  30.9724m  1:n_xi8/xi=  30.8218m
 + 1:n_xi8/xi=  30.9065m  1:n_xi8/xi=   1.7711   1:n_xi8/xi=   1.7711 
 + 1:n_vdd!_x=   1.7955   1:n_xi8/xi=   1.7711   1:n_xi8/xi=   1.7713 
 + 1:n_xi8/xi=   1.7713   1:n_xi8/xi=   1.7713   1:n_xi8/xi=   1.7712 
 + 1:n_xi8/xi=   1.7713   1:n_xi8/xi=   1.7713   1:n_xi8/xi=   1.7713 
 + 1:n_xi9/xi=  30.4149m  1:n_b<0>_x=   1.7996   1:n_xi9/xi=  30.4071m
 + 1:n_xi9/xi=  30.4072m  1:n_xi9/xi=  30.3885m  1:n_xi9/xi=  30.4287m
 + 1:n_xi9/xi=  30.3087m  1:n_xi9/xi=  30.2600m  1:n_xi9/xi=  30.3820m
 + 1:n_xi9/xi=  30.2560m  1:n_xi9/xi=  30.3268m  1:n_vdd!_x=   1.7888 
 + 1:n_xi9/xi=   1.7447   1:n_xi9/xi=   1.7447   1:n_xi9/xi=   1.7447 
 + 1:n_xi9/xi=   1.7450   1:n_xi9/xi=   1.7451   1:n_xi9/xi=   1.7449 
 + 1:n_xi9/xi=   1.7448   1:n_xi9/xi=   1.7450   1:n_xi9/xi=   1.7448 
 + 1:n_xi9/xi=   1.7449   1:n_net28_=   1.7784   1:n_xi16/x=  30.8000m
 + 1:n_xi16/x=  30.7928m  1:n_xi16/x=  30.7929m  1:n_xi16/x=  30.7927m
 + 1:n_xi16/x=  30.8349m  1:n_xi16/x=  30.7089m  1:n_xi16/x=  30.6573m
 + 1:n_xi16/x=  30.7859m  1:n_xi16/x=  30.6536m  1:n_xi7/xi=  20.2075m
 + 1:n_xi16/x=  30.7279m  1:n_xi16/x=   1.7432   1:n_xi16/x=   1.7432 
 + 1:n_xi16/x=   1.7432   1:n_xi16/x=   1.7433   1:n_xi16/x=   1.7433 
 + 1:n_xi16/x=   1.7433   1:n_xi16/x=   1.7433   1:n_xi16/x=   1.7433 
 + 1:n_gnd!_x=  19.0451m  1:n_xi16/x=   1.7433   1:n_xi16/x=   1.7433 
 + 1:n_xi11/x=  29.4006m  1:n_xi11/x=  29.3938m  1:n_xi11/x=  29.3939m
 + 1:n_xi11/x=  29.3810m  1:n_xi11/x=  29.4172m  1:n_xi11/x=  29.3094m
 + 1:n_xi11/x=  29.2655m  1:n_net28_=   1.7786   1:n_xi11/x=  29.3752m
 + 1:n_xi11/x=  29.2620m  1:n_xi11/x=  29.3256m  1:n_xi11/x=   1.7246 
 + 1:n_xi11/x=   1.7246   1:n_xi11/x=   1.7246   1:n_xi11/x=   1.7249 
 + 1:n_xi11/x=   1.7249   1:n_xi11/x=   1.7248   1:n_xi7/xi=  20.5595m
 + 1:n_xi11/x=   1.7247   1:n_xi11/x=   1.7249   1:n_xi11/x=   1.7247 
 + 1:n_xi11/x=   1.7248   1:n_xi12/x=   1.7279   1:n_xi12/x=   1.7279 
 + 1:n_xi12/x=   1.7279   1:n_xi12/x=   1.7280   1:n_xi12/x=   1.7280 
 + 1:n_vdd!_x=   1.7873   1:n_xi12/x=   1.7280   1:n_xi12/x=   1.7280 
 + 1:n_xi12/x=   1.7280   1:n_xi12/x=   1.7280   1:n_xi12/x=   1.7280 
 + 1:n_xi12/x=  32.9800m  1:n_xi12/x=  32.9736m  1:n_xi12/x=  32.9737m
 + 1:n_xi12/x=  33.0240m  1:n_xi8/xi=  21.0213m  1:n_xi12/x=  33.0766m
 + 1:n_xi12/x=  32.9197m  1:n_xi12/x=  32.8540m  1:n_xi12/x=  33.0156m
 + 1:n_xi12/x=  32.8508m  1:n_xi12/x=  32.9434m  1:n_xi13/x=  29.8857m
 + 1:n_xi13/x=  29.8794m  1:n_xi13/x=  29.8795m  1:n_xi8/ne=   1.7654 
 + 1:n_xi13/x=  29.8843m  1:n_xi13/x=  29.9229m  1:n_xi13/x=  29.8079m
 + 1:n_xi13/x=  29.7606m  1:n_xi13/x=  29.8781m  1:n_xi13/x=  29.7574m
 + 1:n_xi13/x=  29.8252m  1:n_xi13/x=   1.7221   1:n_xi13/x=   1.7221 
 + 1:n_gnd!_x=  20.3528m  1:n_xi13/x=   1.7221   1:n_xi13/x=   1.7222 
 + 1:n_xi13/x=   1.7222   1:n_xi13/x=   1.7222   1:n_xi13/x=   1.7222 
 + 1:n_xi13/x=   1.7222   1:n_xi13/x=   1.7222   1:n_xi13/x=   1.7222 
 + 1:n_xi14/x=   1.7204   1:n_xi8/xi=  21.0265m  1:n_xi14/x=   1.7204 
 + 1:n_xi14/x=   1.7204   1:n_xi14/x=   1.7205   1:n_xi14/x=   1.7205 
 + 1:n_xi14/x=   1.7205   1:n_xi14/x=   1.7205   1:n_xi14/x=   1.7205 
 + 1:n_xi14/x=   1.7205   1:n_xi14/x=   1.7205   1:n_xi8/ne=  24.1007m
 + 1:n_xi14/x=   1.7161   1:n_xi14/x=   1.7161   1:n_xi14/x=   1.7161 
 + 1:n_xi14/x=   1.7163   1:n_xi14/x=   1.7163   1:n_xi14/x=   1.7162 
 + 1:n_xi14/x=   1.7161   1:n_xi14/x=   1.7163   1:n_xi14/x=   1.7161 
 + 1:n_xi14/x=   1.7162   1:n_xi8/ne=   1.7972   1:n_xi8/ne=   1.7972 
 + 1:n_xi8/ne=   1.7972   1:n_xi8/ne=   1.7971   1:n_xi8/ne=   1.7969 
 + 1:n_xi8/ne=   1.7972   1:n_xi8/ne=   1.7972   1:n_xi8/ne=   1.7972 
 + 1:n_xi8/ne=   1.7972   1:n_xi8/ne=   1.7654   1:n_xi8/ne=   1.7972 
 + 1:n_xi8/ne=   1.7972   1:n_xi8/ne=   1.7974   1:n_xi8/ne=   1.7972 
 + 1:n_xi8/ne=   1.7972   1:n_xi8/ne=   1.7972   1:n_xi8/ne=   1.7970 
 + 1:n_xi8/ne=   1.7656   1:n_xi8/ne=   1.7656   1:n_vdd!_x=   1.7693 
 + 1:n_xi8/ne=   1.7656   1:n_xi8/ne=   1.7656   1:n_xi8/ne=   1.7656 
 + 1:n_xi8/ne=   1.7656   1:n_xi8/ne=   1.7655   1:n_xi8/ne=   1.7655 
 + 1:n_xi8/ne=   1.7655   1:n_xi8/ne=   1.7655   1:n_xi8/ne=   1.7655 
 + 1:n_xi8/ne=   1.7656   1:n_vdd!_x=   1.7707   1:n_xi8/ne=   1.7656 
 + 1:n_xi8/ne=   1.7656   1:n_xi8/ne=   1.7656   1:n_xi8/ne=   1.7656 
 + 1:n_xi8/ne=   1.7656   1:n_xi8/ne=   1.7656   1:n_xi8/ne=   1.7655 
 + 1:n_xi8/ne=   1.7655   1:n_xi8/ne=   1.7655   1:n_xi8/ne=   1.7655 
 + 1:n_xi8/xi=  21.0315m  1:n_xi8/ne=   1.7656   1:n_xi8/ne=   1.7655 
 + 1:n_xi8/ne=   1.7654   1:n_xi8/ne=   1.7655   1:n_xi8/ne=   1.7654 
 + 1:n_xi8/ne=  24.1542m  1:n_xi8/ne=  24.1582m  1:n_xi8/ne=  24.1587m
 + 1:n_xi8/ne=  24.1588m  1:n_xi8/ne=  24.1008m  1:n_xi8/ne=  24.1588m
 + 1:n_xi8/ne=  24.1588m  1:n_xi8/ne=  24.0895m  1:n_xi8/ne=  24.0895m
 + 1:n_xi8/ne=  24.0900m  1:n_xi8/ne=  24.0895m  1:n_xi8/ne=  24.0900m
 + 1:n_xi8/ne=  24.1587m  1:n_xi8/ne=  24.1588m  1:n_xi8/ne=  24.1588m
 + 1:n_xi8/xi=  29.6065m  1:n_xi8/ne=  24.1588m  1:n_xi8/ne=  24.0895m
 + 1:n_xi8/ne=  24.0901m  1:n_xi8/ne=  24.1534m  1:n_xi8/ne=  24.1588m
 + 1:n_xi8/ne=  24.1576m  1:n_xi8/ne=  24.0943m  1:n_xi8/ne=  24.0939m
 + 1:n_xi8/ne=  24.0947m  1:n_xi8/ne=  24.1007m  1:n_xi8/ne=   1.7971 
 + 1:n_xi8/ne=  24.1007m  1:n_xi8/ne=  24.1007m  1:n_xi8/ne=  24.1007m
 + 1:n_xi8/ne=  24.1007m  1:n_xi8/ne=  24.1007m  1:n_xi8/ne=  24.1008m
 + 1:n_xi8/xi=  21.2147m  1:n_xi8/xi=  21.2056m  1:n_xi8/xi=  21.2057m
 + 1:n_gnd!_x=  19.7223m  1:n_xi8/xi=  21.0261m  1:n_xi8/xi=  21.0306m
 + 1:n_xi8/xi=  21.0311m  1:n_xi8/xi=  21.0345m  1:n_xi8/xi=  21.0224m
 + 1:n_xi8/xi=  21.0273m  1:n_xi8/xi=  21.0312m  1:n_xi8/xi=  21.0309m
 + 1:n_xi9/ne=   1.7760   1:n_s<1>_x=  35.8749m  1:n_xi9/ne=   1.7760 
 + 1:n_xi9/ne=   1.7760   1:n_xi9/ne=   1.7760   1:n_xi9/ne=   1.7757 
 + 1:n_xi9/ne=   1.7760   1:n_xi9/ne=   1.7760   1:n_xi9/ne=   1.7760 
 + 1:n_xi9/ne=   1.7760   1:n_xi9/ne=   1.7760   1:n_xi9/ne=   1.7760 
 + 1:n_net28_=   1.7774   1:n_xi9/ne=   1.7762   1:n_xi9/ne=   1.7760 
 + 1:n_xi9/ne=   1.7760   1:n_xi9/ne=   1.7760   1:n_xi9/ne=   1.7759 
 + 1:n_xi9/ne=   1.7507   1:n_xi9/ne=   1.7507   1:n_xi9/ne=   1.7507 
 + 1:n_xi9/ne=   1.7507   1:n_xi8/xi=  29.6069m  1:n_xi9/ne=   1.7507 
 + 1:n_xi9/ne=   1.7507   1:n_xi9/ne=   1.7506   1:n_xi9/ne=   1.7506 
 + 1:n_xi9/ne=   1.7506   1:n_xi9/ne=   1.7506   1:n_xi9/ne=   1.7506 
 + 1:n_xi9/ne=   1.7507   1:n_xi9/ne=   1.7507   1:n_xi9/ne=   1.7507 
 + 1:n_net28_=   1.7767   1:n_xi9/ne=   1.7507   1:n_xi9/ne=   1.7507 
 + 1:n_xi9/ne=   1.7507   1:n_xi9/ne=   1.7507   1:n_xi9/ne=   1.7506 
 + 1:n_xi9/ne=   1.7506   1:n_xi9/ne=   1.7506   1:n_xi9/ne=   1.7506 
 + 1:n_xi9/ne=   1.7506   1:n_xi9/ne=   1.7506   1:n_xi8/xi=  29.6186m
 + 1:n_xi9/ne=   1.7504   1:n_xi9/ne=   1.7505   1:n_xi9/ne=   1.7504 
 + 1:n_xi9/ne=  23.3688m  1:n_xi9/ne=  23.3720m  1:n_xi9/ne=  23.3724m
 + 1:n_xi9/ne=  23.3724m  1:n_xi9/ne=  23.3724m  1:n_xi9/ne=  23.3724m
 + 1:n_xi8/ne=   1.7971   1:n_xi9/ne=  23.3186m  1:n_xi9/ne=  23.3186m
 + 1:n_xi9/ne=  23.3190m  1:n_xi9/ne=  23.3186m  1:n_xi9/ne=  23.3190m
 + 1:n_xi9/ne=  23.3723m  1:n_xi9/ne=  23.3724m  1:n_xi9/ne=  23.3724m
 + 1:n_xi9/ne=  23.3724m  1:n_xi9/ne=  23.3186m  1:n_vdd!_x=   1.7837 
 + 1:n_xi9/ne=  23.3190m  1:n_xi9/ne=  23.3682m  1:n_xi9/ne=  23.3724m
 + 1:n_xi9/ne=  23.3715m  1:n_xi9/ne=  23.3223m  1:n_xi9/ne=  23.3220m
 + 1:n_xi9/ne=  23.3227m  1:n_xi9/ne=  23.3273m  1:n_xi9/ne=  23.3273m
 + 1:n_xi9/ne=  23.3273m  1:n_s<1>_x=  35.8804m  1:n_xi9/ne=  23.3273m
 + 1:n_xi9/ne=  23.3273m  1:n_xi9/ne=  23.3273m  1:n_xi9/ne=  23.3273m
 + 1:n_xi9/xi=  21.2174m  1:n_xi9/xi=  21.2092m  1:n_xi9/xi=  21.2093m
 + 1:n_xi9/xi=  21.0467m  1:n_xi9/xi=  21.0507m  1:n_net28_=   1.7774 
 + 1:n_xi9/xi=  21.0511m  1:n_xi9/xi=  21.0542m  1:n_xi9/xi=  21.0433m
 + 1:n_xi9/xi=  21.0477m  1:n_xi9/xi=  21.0512m  1:n_xi9/xi=  21.0510m
 + 1:n_xi16/n=   1.7970   1:n_xi16/n=   1.7970   1:n_xi16/n=   1.7970 
 + 1:n_xi8/ne=   1.7972   1:n_xi16/n=   1.7970   1:n_xi16/n=   1.7967 
 + 1:n_xi16/n=   1.7970   1:n_xi16/n=   1.7970   1:n_xi16/n=   1.7970 
 + 1:n_xi16/n=   1.7970   1:n_xi16/n=   1.7971   1:n_xi16/n=   1.7971 
 + 1:n_xi16/n=   1.7973   1:n_xi16/n=   1.7970   1:n_xi8/ne=   1.7972 
 + 1:n_xi16/n=   1.7970   1:n_xi16/n=   1.7970   1:n_xi16/n=   1.7969 
 + 1:n_xi16/n=   1.7389   1:n_xi16/n=   1.7389   1:n_xi16/n=   1.7390 
 + 1:n_xi16/n=   1.7390   1:n_xi16/n=   1.7390   1:n_xi16/n=   1.7390 
 + 1:n_net28_=   1.7767   1:n_xi16/n=   1.7389   1:n_xi16/n=   1.7389 
 + 1:n_xi16/n=   1.7389   1:n_xi16/n=   1.7389   1:n_xi16/n=   1.7389 
 + 1:n_xi16/n=   1.7389   1:n_xi16/n=   1.7390   1:n_xi16/n=   1.7390 
 + 1:n_xi16/n=   1.7390   1:n_xi16/n=   1.7389   1:n_xi8/xi=   1.7732 
 + 1:n_xi16/n=   1.7390   1:n_xi16/n=   1.7389   1:n_xi16/n=   1.7389 
 + 1:n_xi16/n=   1.7389   1:n_xi16/n=   1.7388   1:n_xi16/n=   1.7388 
 + 1:n_xi16/n=   1.7389   1:n_xi16/n=   1.7388   1:n_xi16/n=   1.7387 
 + 1:n_xi16/n=   1.7388   1:n_a<1>_x= 738.3389u  1:n_xi16/n=   1.7387 
 + 1:n_xi16/n=  23.3067m  1:n_xi16/n=  23.3098m  1:n_xi16/n=  23.3102m
 + 1:n_xi16/n=  23.3102m  1:n_xi16/n=  23.3102m  1:n_xi16/n=  23.3102m
 + 1:n_xi16/n=  23.2575m  1:n_xi16/n=  23.2575m  1:n_gnd!_x=  19.7243m
 + 1:n_xi16/n=  23.2579m  1:n_xi16/n=  23.2575m  1:n_xi16/n=  23.2579m
 + 1:n_xi16/n=  23.3101m  1:n_xi16/n=  23.3102m  1:n_xi16/n=  23.3102m
 + 1:n_xi16/n=  23.3102m  1:n_xi16/n=  23.2575m  1:n_xi16/n=  23.2580m
 + 1:n_xi16/n=  23.3061m  1:n_xi8/ne=   1.7974   1:n_xi16/n=  23.3102m
 + 1:n_xi16/n=  23.3093m  1:n_xi16/n=  23.2612m  1:n_xi16/n=  23.2609m
 + 1:n_xi16/n=  23.2615m  1:n_xi16/n=  23.2661m  1:n_xi16/n=  23.2661m
 + 1:n_xi16/n=  23.2661m  1:n_xi16/n=  23.2661m  1:n_xi16/n=  23.2661m
 + 1:n_b<1>_x=   1.8000   1:n_xi16/n=  23.2661m  1:n_xi16/n=  23.2661m
 + 1:n_xi16/x=  21.1570m  1:n_xi16/x=  21.1494m  1:n_xi16/x=  21.1495m
 + 1:n_xi16/x=  20.9990m  1:n_xi16/x=  21.0027m  1:n_xi16/x=  21.0031m
 + 1:n_xi16/x=  21.0060m  1:n_xi8/xi=   1.7732   1:n_xi16/x=  20.9958m
 + 1:n_xi16/x=  21.0000m  1:n_xi16/x=  21.0032m  1:n_xi16/x=  21.0030m
 + 1:n_xi11/n=   1.7759   1:n_xi11/n=   1.7759   1:n_xi11/n=   1.7759 
 + 1:n_xi11/n=   1.7759   1:n_xi11/n=   1.7757   1:n_b<1>_x=   1.7998 
 + 1:n_xi11/n=   1.7759   1:n_xi11/n=   1.7759   1:n_xi11/n=   1.7759 
 + 1:n_xi11/n=   1.7759   1:n_xi11/n=   1.7760   1:n_xi11/n=   1.7760 
 + 1:n_xi11/n=   1.7762   1:n_xi11/n=   1.7760   1:n_xi11/n=   1.7760 
 + 1:n_xi11/n=   1.7760   1:n_xi8/xi=   1.7732   1:n_xi11/n=   1.7758 
 + 1:n_xi11/n=   1.7295   1:n_xi11/n=   1.7295   1:n_xi11/n=   1.7296 
 + 1:n_xi11/n=   1.7296   1:n_xi11/n=   1.7296   1:n_xi11/n=   1.7296 
 + 1:n_xi11/n=   1.7295   1:n_xi11/n=   1.7295   1:n_a<1>_x= 738.1109u
 + 1:n_xi11/n=   1.7295   1:n_xi11/n=   1.7295   1:n_xi11/n=   1.7295 
 + 1:n_xi11/n=   1.7295   1:n_xi11/n=   1.7296   1:n_xi11/n=   1.7296 
 + 1:n_xi11/n=   1.7296   1:n_xi11/n=   1.7295   1:n_xi11/n=   1.7296 
 + 1:n_xi11/n=   1.7295   1:n_vdd!_x=   1.7837   1:n_xi11/n=   1.7295 
 + 1:n_xi11/n=   1.7295   1:n_xi11/n=   1.7295   1:n_xi11/n=   1.7295 
 + 1:n_xi11/n=   1.7295   1:n_xi11/n=   1.7295   1:n_xi11/n=   1.7294 
 + 1:n_xi11/n=   1.7294   1:n_xi11/n=   1.7294   1:n_xi8/ne=   1.7974 
 + 1:n_xi11/n=  22.8146m  1:n_xi11/n=  22.8171m  1:n_xi11/n=  22.8174m
 + 1:n_xi11/n=  22.8175m  1:n_xi11/n=  22.8175m  1:n_xi11/n=  22.8175m
 + 1:n_xi11/n=  22.7737m  1:n_xi11/n=  22.7737m  1:n_xi11/n=  22.7740m
 + 1:n_xi11/n=  22.7737m  1:n_b<1>_x=   1.8000   1:n_xi11/n=  22.7740m
 + 1:n_xi11/n=  22.8174m  1:n_xi11/n=  22.8175m  1:n_xi11/n=  22.8175m
 + 1:n_xi11/n=  22.8175m  1:n_xi11/n=  22.7737m  1:n_xi11/n=  22.7740m
 + 1:n_xi11/n=  22.8140m  1:n_xi11/n=  22.8175m  1:n_xi11/n=  22.8167m
 + 1:n_a<1>_x= 698.6529u  1:n_xi11/n=  22.7767m  1:n_xi11/n=  22.7765m
 + 1:n_xi11/n=  22.7770m  1:n_xi11/n=  22.7808m  1:n_xi11/n=  22.7808m
 + 1:n_xi11/n=  22.7808m  1:n_xi11/n=  22.7808m  1:n_xi11/n=  22.7808m
 + 1:n_xi11/n=  22.7808m  1:n_xi11/n=  22.7808m  1:n_a<1>_x= 723.4932u
 + 1:n_xi11/x=  21.1038m  1:n_xi11/x=  21.0967m  1:n_xi11/x=  21.0967m
 + 1:n_xi11/x=  20.9553m  1:n_xi11/x=  20.9588m  1:n_xi11/x=  20.9591m
 + 1:n_xi11/x=  20.9618m  1:n_xi11/x=  20.9523m  1:n_xi11/x=  20.9562m
 + 1:n_b<1>_x=   1.7998   1:n_xi11/x=  20.9592m  1:n_xi11/x=  20.9590m
 + 1:n_xi12/n=  45.9472m  1:n_xi12/n=  45.9468m  1:n_xi12/n=  45.9580m
 + 1:n_xi12/n=  45.9627m  1:n_xi12/n=  45.8973m  1:n_xi12/n=  45.9416m
 + 1:n_xi12/n=  45.9452m  1:n_net29_=   1.7622   1:n_xi12/n=  45.9458m
 + 1:n_xi12/n=  45.9414m  1:n_xi12/n=  45.7213m  1:n_xi12/n=  45.7185m
 + 1:n_xi12/n=  45.4059m  1:n_xi12/n=  45.7229m  1:n_xi12/n=  45.7230m
 + 1:n_xi12/n=  45.7237m  1:n_xi12/n=  45.8164m  1:n_xi8/xi=  21.2074m
 + 1:n_xi12/n=  23.0926m  1:n_xi12/n=  23.0952m  1:n_xi12/n=  23.0955m
 + 1:n_xi12/n=  23.0955m  1:n_xi12/n=  23.0956m  1:n_xi12/n=  23.0956m
 + 1:n_xi12/n=  23.0489m  1:n_xi12/n=  23.0489m  1:n_xi12/n=  23.0493m
 + 1:n_xi12/n=  23.0489m  1:n_gnd!_x=  20.3868m  1:n_xi12/n=  23.0493m
 + 1:n_xi12/n=  23.0955m  1:n_xi12/n=  23.0955m  1:n_xi12/n=  23.0956m
 + 1:n_xi12/n=  23.0956m  1:n_xi12/n=  23.0951m  1:n_xi12/n=  23.0956m
 + 1:n_xi12/n=  23.0948m  1:n_xi12/n=  23.0523m  1:n_xi12/n=  23.0520m
 + 1:n_net29_=   1.7624   1:n_xi12/n=  23.1921m  1:n_xi12/n=  23.1870m
 + 1:n_xi12/n=  23.0723m  1:n_xi12/n=  23.1921m  1:n_xi12/n=  23.4068m
 + 1:n_xi12/n=  23.3068m  1:n_xi12/n=  23.4121m  1:n_xi12/n=   1.7227 
 + 1:n_xi12/n=   1.7227   1:n_xi8/xi=  21.5202m  1:n_xi12/n=   1.7227 
 + 1:n_xi12/n=   1.7227   1:n_xi12/n=   1.7227   1:n_xi12/n=   1.7227 
 + 1:n_xi12/n=   1.7226   1:n_xi12/n=   1.7226   1:n_xi12/n=   1.7226 
 + 1:n_xi12/n=   1.7226   1:n_xi12/n=   1.7226   1:n_xi12/n=   1.7227 
 + 1:n_vdd!_x=   1.7699   1:n_xi12/n=   1.7227   1:n_xi12/n=   1.7227 
 + 1:n_xi12/n=   1.7227   1:n_xi12/n=   1.7226   1:n_xi12/n=   1.7226 
 + 1:n_xi12/n=   1.7227   1:n_xi12/n=   1.7227   1:n_xi12/n=   1.7227 
 + 1:n_xi12/n=   1.7226   1:n_xi12/n=   1.7226   1:n_xi12/n=   1.7226 
 + 1:n_xi12/n=   1.7226   1:n_xi12/n=   1.7226   1:n_xi12/n=   1.7226 
 + 1:n_xi12/n=   1.7227   1:n_xi12/n=   1.7225   1:n_xi12/n=   1.7225 
 + 1:n_xi12/n=   1.7225   1:n_xi12/x=  24.7512m  1:n_xi8/ne=   1.7966 
 + 1:n_xi12/x=  24.7445m  1:n_xi12/x=  24.7446m  1:n_xi12/x=  24.5890m
 + 1:n_xi12/x=  24.6138m  1:n_xi12/x=  24.6306m  1:n_xi12/x=  24.6185m
 + 1:n_xi12/x=  24.5890m  1:n_xi12/x=  24.5937m  1:n_xi12/x=  24.6392m
 + 1:n_xi12/x=  24.6158m  1:n_gnd!_x=  19.6267m  1:n_xi13/n=   1.7967 
 + 1:n_xi13/n=   1.7967   1:n_xi13/n=   1.7967   1:n_xi13/n=   1.7966 
 + 1:n_xi13/n=   1.7964   1:n_xi13/n=   1.7967   1:n_xi13/n=   1.7967 
 + 1:n_xi13/n=   1.7967   1:n_xi13/n=   1.7967   1:n_xi8/xi=  30.7301m
 + 1:n_xi13/n=   1.7967   1:n_xi13/n=   1.7967   1:n_xi13/n=   1.7970 
 + 1:n_xi13/n=   1.7967   1:n_xi13/n=   1.7967   1:n_xi13/n=   1.7967 
 + 1:n_xi13/n=   1.7966   1:n_xi13/n=   1.7187   1:n_xi13/n=   1.7187 
 + 1:n_net28_=   1.7770   1:n_xi13/n=   1.7187   1:n_xi13/n=   1.7187 
 + 1:n_xi13/n=   1.7187   1:n_xi13/n=   1.7187   1:n_xi13/n=   1.7186 
 + 1:n_xi13/n=   1.7186   1:n_xi13/n=   1.7186   1:n_xi13/n=   1.7186 
 + 1:n_xi13/n=   1.7186   1:n_xi13/n=   1.7187   1:n_xi8/xi=  31.1534m
 + 1:n_xi13/n=   1.7187   1:n_xi13/n=   1.7187   1:n_xi13/n=   1.7187 
 + 1:n_xi13/n=   1.7187   1:n_xi13/n=   1.7187   1:n_xi13/n=   1.7187 
 + 1:n_xi13/n=   1.7186   1:n_xi13/n=   1.7186   1:n_xi13/n=   1.7186 
 + 1:n_xi13/n=   1.7186   1:n_xi8/ne=   1.7969   1:n_xi13/n=   1.7187 
 + 1:n_xi13/n=   1.7186   1:n_xi13/n=   1.7185   1:n_xi13/n=   1.7185 
 + 1:n_xi13/n=   1.7185   1:n_xi13/n=  22.7388m  1:n_xi13/n=  22.7413m
 + 1:n_xi13/n=  22.7416m  1:n_xi13/n=  22.7417m  1:n_vdd!_x=   1.7753 
 + 1:n_xi13/n=  22.7417m  1:n_xi13/n=  22.7417m  1:n_xi13/n=  22.6992m
 + 1:n_xi13/n=  22.6992m  1:n_xi13/n=  22.6995m  1:n_xi13/n=  22.6992m
 + 1:n_xi13/n=  22.6996m  1:n_xi13/n=  22.7416m  1:n_xi13/n=  22.7417m
 + 1:n_xi13/n=  22.7417m  1:n_net28_=   1.7772   1:n_xi13/n=  22.7417m
 + 1:n_xi13/n=  22.6992m  1:n_xi13/n=  22.6996m  1:n_xi13/n=  22.7383m
 + 1:n_xi13/n=  22.7417m  1:n_xi13/n=  22.7409m  1:n_xi13/n=  22.7022m
 + 1:n_xi13/n=  22.7019m  1:n_xi13/n=  22.7024m  1:n_xi13/n=  22.7061m
 + 1:n_vdd!_x=   1.7737   1:n_xi13/n=  22.7061m  1:n_xi13/n=  22.7061m
 + 1:n_xi13/n=  22.7061m  1:n_xi13/n=  22.7061m  1:n_xi13/n=  22.7061m
 + 1:n_xi13/n=  22.7061m  1:n_xi13/x=  21.0409m  1:n_xi13/x=  21.0342m
 + 1:n_xi13/x=  21.0343m  1:n_xi8/ne=   1.7655   1:n_xi13/x=  20.9024m
 + 1:n_xi13/x=  20.9057m  1:n_xi13/x=  20.9061m  1:n_xi13/x=  20.9086m
 + 1:n_xi13/x=  20.8997m  1:n_xi13/x=  20.9033m  1:n_xi13/x=  20.9061m
 + 1:n_xi13/x=  20.9059m  1:n_xi14/n=   4.6414m  1:n_xi8/xi=  30.9902m
 + 1:n_xi14/n=   4.6409m  1:n_xi14/n=   4.6537m  1:n_xi14/n=   4.6603m
 + 1:n_xi14/n=   4.5521m  1:n_xi14/n=   4.6336m  1:n_xi14/n=   4.6386m
 + 1:n_xi14/n=   4.6394m  1:n_xi14/n=   4.6334m  1:n_xi14/n=   4.3321m
 + 1:n_xi14/n=   4.3283m  1:n_gnd!_x=  20.2041m  1:n_xi14/n=   3.9117m
 + 1:n_xi14/n=   4.3341m  1:n_xi14/n=   4.3343m  1:n_xi14/n=   4.3352m
 + 1:n_xi14/n=   4.4510m  1:n_xi14/n=  22.8656m  1:n_xi14/n=  22.8680m
 + 1:n_xi14/n=  22.8684m  1:n_xi14/n=  22.8684m  1:n_xi8/ne=   1.7656 
 + 1:n_xi14/n=  22.8684m  1:n_xi14/n=  22.8684m  1:n_xi14/n=  22.8252m
 + 1:n_xi14/n=  22.8252m  1:n_xi14/n=  22.8255m  1:n_xi14/n=  22.8252m
 + 1:n_xi14/n=  22.8255m  1:n_xi14/n=  22.8683m  1:n_xi14/n=  22.8684m
 + 1:n_xi14/n=  22.8684m  1:n_xi8/xi=  31.2866m  1:n_xi14/n=  22.8684m
 + 1:n_xi14/n=  22.8680m  1:n_xi14/n=  22.8684m  1:n_xi14/n=  22.8677m
 + 1:n_xi14/n=  22.8283m  1:n_xi14/n=  22.8280m  1:n_xi14/n=  22.9630m
 + 1:n_xi14/n=  22.9580m  1:n_xi14/n=  22.8469m  1:n_xi14/n=  22.9630m
 + 1:n_vdd!_x=   1.7716   1:n_xi14/n=  23.1712m  1:n_xi14/n=  23.0742m
 + 1:n_xi14/n=  23.1763m  1:n_xi14/n=  22.7610m  1:n_xi14/n=  22.7634m
 + 1:n_xi14/n=  22.7637m  1:n_xi14/n=  22.7637m  1:n_xi14/n=  22.7637m
 + 1:n_xi14/n=  22.7637m  1:n_xi14/n=  22.7233m  1:n_xi14/n=  22.7234m
 + 1:n_xi14/n=  22.7237m  1:n_xi14/n=  22.7234m  1:n_xi14/n=  22.7237m
 + 1:n_xi14/n=  22.7636m  1:n_xi14/n=  22.7637m  1:n_xi14/n=  22.7637m
 + 1:n_xi14/n=  22.7637m  1:n_xi14/n=  22.7234m  1:n_a<1>_x= 322.4137u
 + 1:n_xi14/n=  22.7237m  1:n_xi14/n=  22.7606m  1:n_xi14/n=  22.7637m
 + 1:n_xi14/n=  22.7630m  1:n_xi14/n=  22.7263m  1:n_xi14/n=  22.7261m
 + 1:n_xi14/n=  22.7266m  1:n_xi14/n=  22.8398m  1:n_xi14/n=  22.8405m
 + 1:n_xi14/n=  22.8384m  1:n_gnd!_x=  20.0860m  1:n_xi14/n=  22.7303m
 + 1:n_xi14/n=  23.0429m  1:n_xi14/n=  22.9486m  1:n_xi14/n=  23.0479m
 + 1:n_xi14/x=   1.7102   1:n_xi14/x=   1.7102   1:n_xi14/x=   1.7102 
 + 1:n_xi14/x=   1.7103   1:n_xi14/x=   1.7103   1:n_xi8/xi=   1.7713 
 + 1:n_xi14/x=   1.7104   1:n_xi14/x=   1.7103   1:n_xi14/x=   1.7103 
 + 1:n_xi14/x=   1.7103   1:n_xi14/x=   1.7104   1:n_xi14/x=   1.7103 
 + 1:n_b<1>_x=   1.8000   1:n_xi8/xi=   1.7713   1:n_a<1>_x= 524.8461u
 + 1:n_vdd!_x=   1.7716   1:n_b<1>_x=   1.8000   1:n_vdd!_x=   1.7711 
 + 1:n_xi8/ne=  24.0895m  1:n_xi8/xi=   1.7710   1:n_gnd!_x=  20.3573m
 + 1:n_xi8/ne=  24.1588m  1:n_xi8/xi=   1.7711   1:n_vdd!_x=   1.7707 
 + 1:n_xi9/xi=  21.0423m  1:n_xi9/ne=   1.7504   1:n_gnd!_x=  20.4371m
 + 1:n_xi9/xi=  21.0470m  1:n_xi9/ne=  23.3273m  1:n_xi9/ne=   1.7504 
 + 1:n_vdd!_x=   1.7540   1:n_vdd!_x=   1.7551   1:n_xi9/xi=  21.0515m
 + 1:n_xi9/ne=  23.3273m  1:n_xi9/xi=  29.1977m  1:n_xi9/ne=   1.7759 
 + 1:n_gnd!_x=  20.9591m  1:n_s<2>_x=  34.4713m  1:n_net29_=   1.7614 
 + 1:n_xi9/xi=  29.1980m  1:n_net29_=   1.7607   1:n_xi9/xi=  29.2075m
 + 1:n_xi9/ne=   1.7760   1:n_vdd!_x=   1.7660   1:n_s<2>_x=  34.4760m
 + 1:n_net29_=   1.7614   1:n_xi9/ne=   1.7760   1:n_xi9/ne=   1.7760 
 + 1:n_net29_=   1.7607   1:n_xi9/xi=  25.6425m  1:n_a<2>_x=   1.7977 
 + 1:n_gnd!_x=  21.8885m  1:n_xi9/ne=   1.7762   1:n_b<2>_x=  94.2855u
 + 1:n_xi9/xi=  25.6429m  1:n_b<2>_x= 593.3469u  1:n_xi9/xi=  25.6550m
 + 1:n_a<2>_x=   1.7977   1:n_vdd!_x=   1.7660   1:n_xi9/ne=   1.7762 
 + 1:n_b<2>_x=  94.0546u  1:n_a<2>_x=   1.7978   1:n_a<2>_x=   1.7978 
 + 1:n_b<2>_x= 603.0587u  1:n_net30_=   1.7478   1:n_xi9/xi=  21.2108m
 + 1:n_gnd!_x=  20.3972m  1:n_net30_=   1.7479   1:n_xi9/xi=  21.4940m
 + 1:n_vdd!_x=   1.7545   1:n_xi9/ne=   1.7755   1:n_gnd!_x=  20.8408m
 + 1:n_xi9/xi=  30.1788m  1:n_net29_=   1.7610   1:n_xi9/xi=  30.5335m
 + 1:n_xi9/ne=   1.7757   1:n_vdd!_x=   1.7590   1:n_net29_=   1.7612 
 + 1:n_vdd!_x=   1.7576   1:n_xi9/ne=   1.7506   1:n_xi9/xi=  30.4087m
 + 1:n_gnd!_x=  20.4113m  1:n_xi9/ne=   1.7507   1:n_xi9/xi=  30.6774m
 + 1:n_vdd!_x=   1.7558   1:n_a<2>_x=   1.7994   1:n_gnd!_x=  20.4488m
 + 1:n_xi9/xi=   1.7447   1:n_b<2>_x= 301.7167u  1:n_xi9/xi=   1.7452 
 + 1:n_a<2>_x=   1.7996   1:n_vdd!_x=   1.7559   1:n_b<2>_x= 483.2688u
 + 1:n_vdd!_x=   1.7553   1:n_xi9/ne=  23.3186m  1:n_xi9/xi=   1.7446 
 + 1:n_gnd!_x=  20.4157m  1:n_xi9/ne=  23.3724m  1:n_xi9/xi=   1.7447 
 + 1:n_vdd!_x=   1.7551   1:n_xi16/x=  20.9949m  1:n_xi16/n=   1.7387 
 + 1:n_gnd!_x=  20.4348m  1:n_xi16/x=  20.9993m  1:n_xi16/n=  23.2661m
 + 1:n_xi16/n=   1.7387   1:n_vdd!_x=   1.7422   1:n_vdd!_x=   1.7430 
 + 1:n_xi16/x=  21.0034m  1:n_xi16/n=  23.2661m  1:n_xi16/x=  30.1217m
 + 1:n_xi16/n=   1.7969   1:n_gnd!_x=  20.9216m  1:n_s<3>_x=  35.7587m
 + 1:n_net30_=   1.7470   1:n_xi16/x=  30.1220m  1:n_net30_=   1.7465 
 + 1:n_xi16/x=  30.1336m  1:n_xi16/n=   1.7970   1:n_vdd!_x=   1.7515 
 + 1:n_s<3>_x=  35.7637m  1:n_net30_=   1.7470   1:n_xi16/n=   1.7970 
 + 1:n_xi16/n=   1.7970   1:n_net30_=   1.7465   1:n_xi16/x=   1.7434 
 + 1:n_a<3>_x= 723.9737u  1:n_gnd!_x=  20.9234m  1:n_xi16/n=   1.7973 
 + 1:n_b<3>_x=   1.8000   1:n_xi16/x=   1.7434   1:n_b<3>_x=   1.7997 
 + 1:n_xi16/x=   1.7434   1:n_a<3>_x= 723.7677u  1:n_vdd!_x=   1.7515 
 + 1:n_xi16/n=   1.7973   1:n_b<3>_x=   1.8000   1:n_a<3>_x= 692.5249u
 + 1:n_a<3>_x= 716.6276u  1:n_b<3>_x=   1.7997   1:n_net04_=   1.7365 
 + 1:n_xi16/x=  21.1510m  1:n_gnd!_x=  20.3962m  1:n_net04_=   1.7366 
 + 1:n_xi16/x=  21.4129m  1:n_vdd!_x=   1.7425   1:n_xi16/n=   1.7965 
 + 1:n_gnd!_x=  20.8323m  1:n_xi16/x=  30.5731m  1:n_net30_=   1.7466 
 + 1:n_xi16/x=  30.9449m  1:n_xi16/n=   1.7967   1:n_vdd!_x=   1.7460 
 + 1:n_net30_=   1.7468   1:n_vdd!_x=   1.7450   1:n_xi16/n=   1.7389 
 + 1:n_xi16/x=  30.7943m  1:n_gnd!_x=  20.4115m  1:n_xi16/n=   1.7390 
 + 1:n_xi16/x=  31.0417m  1:n_vdd!_x=   1.7436   1:n_a<3>_x= 269.7813u
 + 1:n_gnd!_x=  20.4480m  1:n_xi16/x=   1.7433   1:n_b<3>_x=   1.8000 
 + 1:n_xi16/x=   1.7433   1:n_a<3>_x= 438.9735u  1:n_vdd!_x=   1.7436 
 + 1:n_b<3>_x=   1.8000   1:n_vdd!_x=   1.7433   1:n_xi16/n=  23.2575m
 + 1:n_xi16/x=   1.7430   1:n_gnd!_x=  20.4151m  1:n_xi16/n=  23.3102m
 + 1:n_xi16/x=   1.7432   1:n_vdd!_x=   1.7430   1:n_xi11/x=  20.9514m
 + 1:n_xi11/n=   1.7293   1:n_gnd!_x=  20.4247m  1:n_xi11/x=  20.9556m
 + 1:n_xi11/n=  22.7808m  1:n_xi11/n=   1.7294   1:n_vdd!_x=   1.7328 
 + 1:n_vdd!_x=   1.7334   1:n_xi11/x=  20.9594m  1:n_xi11/n=  22.7808m
 + 1:n_xi11/x=  28.6928m  1:n_xi11/n=   1.7759   1:n_gnd!_x=  20.9247m
 + 1:n_s<4>_x=  33.5080m  1:n_net04_=   1.7357   1:n_xi11/x=  28.6931m
 + 1:n_net04_=   1.7352   1:n_xi11/x=  28.7026m  1:n_xi11/n=   1.7759 
 + 1:n_vdd!_x=   1.7401   1:n_s<4>_x=  33.5122m  1:n_net04_=   1.7358 
 + 1:n_xi11/n=   1.7759   1:n_xi11/n=   1.7759   1:n_net04_=   1.7352 
 + 1:n_xi11/x=  25.5976m  1:n_a<4>_x=   1.7977   1:n_gnd!_x=  21.8521m
 + 1:n_xi11/n=   1.7762   1:n_b<4>_x=  92.9832u  1:n_xi11/x=  25.5980m
 + 1:n_b<4>_x= 593.7595u  1:n_xi11/x=  25.6101m  1:n_a<4>_x=   1.7977 
 + 1:n_vdd!_x=   1.7401   1:n_xi11/n=   1.7762   1:n_b<4>_x=  92.7523u
 + 1:n_a<4>_x=   1.7977   1:n_a<4>_x=   1.7978   1:n_b<4>_x= 603.4783u
 + 1:n_net31_=   1.7284   1:n_xi11/x=  21.0982m  1:n_gnd!_x=  20.3912m
 + 1:n_net31_=   1.7285   1:n_xi11/x=  21.3443m  1:n_vdd!_x=   1.7330 
 + 1:n_xi11/n=   1.7755   1:n_gnd!_x=  20.8108m  1:n_xi11/x=  29.1928m
 + 1:n_net04_=   1.7354   1:n_xi11/x=  29.5113m  1:n_xi11/n=   1.7757 
 + 1:n_vdd!_x=   1.7358   1:n_net04_=   1.7356   1:n_vdd!_x=   1.7349 
 + 1:n_xi11/n=   1.7295   1:n_xi11/x=  29.3953m  1:n_gnd!_x=  20.4096m
 + 1:n_xi11/n=   1.7296   1:n_xi11/x=  29.6295m  1:n_vdd!_x=   1.7338 
 + 1:n_a<4>_x=   1.7994   1:n_gnd!_x=  20.4435m  1:n_xi11/x=   1.7246 
 + 1:n_b<4>_x= 262.4150u  1:n_xi11/x=   1.7251   1:n_a<4>_x=   1.7996 
 + 1:n_vdd!_x=   1.7338   1:n_b<4>_x= 419.9596u  1:n_vdd!_x=   1.7334 
 + 1:n_xi11/n=  22.7737m  1:n_xi11/x=   1.7245   1:n_gnd!_x=  20.4096m
 + 1:n_xi11/n=  22.8175m  1:n_xi11/x=   1.7246   1:n_vdd!_x=   1.7334 
 + 1:n_xi12/x=  24.5890m  1:n_xi12/n=  23.4068m  1:n_gnd!_x=  20.5168m
 + 1:n_xi12/x=  24.5839m  1:n_xi12/n=   1.7225   1:n_xi12/n=  23.5571m
 + 1:n_vdd!_x=   1.7262   1:n_vdd!_x=   1.7266   1:n_xi12/x=  24.6707m
 + 1:n_xi12/n=   1.7225   1:n_xi12/x=   1.7268   1:n_xi12/n=  45.9698m
 + 1:n_gnd!_x=  20.7231m  1:n_s<5>_x=   1.7285   1:n_net31_=   1.7285 
 + 1:n_xi12/x=   1.7268   1:n_net31_=   1.7285   1:n_xi12/x=   1.7268 
 + 1:n_xi12/n=  45.9696m  1:n_vdd!_x=   1.7313   1:n_s<5>_x=   1.7285 
 + 1:n_net31_=   1.7285   1:n_xi12/n=  45.9474m  1:n_xi12/n=  45.9647m
 + 1:n_net31_=   1.7285   1:n_xi12/x=  36.3407m  1:n_a<5>_x=   1.7999 
 + 1:n_gnd!_x=  23.8067m  1:n_xi12/n=  45.4053m  1:n_b<5>_x=   1.7999 
 + 1:n_xi12/x=  36.3411m  1:n_b<5>_x=   1.7990   1:n_xi12/x=  36.3522m
 + 1:n_a<5>_x=   1.7999   1:n_vdd!_x=   1.7313   1:n_xi12/n=  45.4110m
 + 1:n_b<5>_x=   1.7999   1:n_a<5>_x=   1.8000   1:n_a<5>_x=   1.8000 
 + 1:n_b<5>_x=   1.7990   1:n_net32_=   1.7213   1:n_xi12/x=  24.7460m
 + 1:n_gnd!_x=  20.4045m  1:n_net32_=   1.7213   1:n_xi12/x=  24.9760m
 + 1:n_vdd!_x=   1.7263   1:n_xi12/n=  45.8978m  1:n_a<0>_c=   1.8000 
 + 1:n_a<0>_c=   1.8000   1:n_a<0>_c=   1.7998   1:n_a<0>_c=   1.8000 
 + 1:n_a<0>_c=   1.8000   1:n_a<0>_c=   1.8000   1:n_a<0>_c=   1.8000 
 + 1:n_a<0>_c=   1.8000   1:n_a<0>_c=   1.8000   1:n_a<0>_c=   1.8000 
 + 1:n_a<0>_c=   1.8000   1:n_a<0>_c=   1.8000   1:n_a<0>_c=   1.8000 
 + 1:n_a<1>_c=   4.1572u  1:n_a<1>_c= 709.4362u  1:n_a<1>_c= 725.1346u
 + 1:n_a<1>_c= 676.3388u  1:n_a<1>_c= 691.7213u  1:n_a<1>_c= 693.4460u
 + 1:n_a<1>_c=   4.3822u  1:n_a<1>_c=  15.6558u  1:n_a<1>_c= 177.8095u
 + 1:n_a<1>_c= 675.2568u  1:n_a<1>_c= 698.1118u  1:n_a<1>_c= 321.7790u
 + 1:n_a<1>_c=  12.8352u  1:n_a<2>_c=   1.8000   1:n_a<2>_c=   1.7978 
 + 1:n_a<2>_c=   1.7977   1:n_a<2>_c=   1.7978   1:n_a<2>_c=   1.7978 
 + 1:n_a<2>_c=   1.7978   1:n_a<2>_c=   1.8000   1:n_a<2>_c=   1.7999 
 + 1:n_a<2>_c=   1.7998   1:n_a<2>_c=   1.7978   1:n_a<2>_c=   1.7978 
 + 1:n_a<2>_c=   1.7996   1:n_a<2>_c=   1.8000   1:n_a<3>_c= 691.9828u
 + 1:n_a<3>_c= 269.1492u  1:n_a<3>_c=  10.6435u  1:n_a<3>_c=   3.3822u
 + 1:n_a<3>_c= 702.8294u  1:n_a<3>_c= 713.1753u  1:n_a<3>_c= 670.3544u
 + 1:n_a<3>_c= 685.5991u  1:n_a<3>_c= 687.3083u  1:n_a<3>_c=   3.5705u
 + 1:n_a<3>_c=  15.9618u  1:n_a<3>_c= 148.6842u  1:n_a<3>_c= 669.2794u
 + 1:n_a<4>_c=   1.8000   1:n_a<4>_c=   1.7978   1:n_a<4>_c=   1.7977 
 + 1:n_a<4>_c=   1.7978   1:n_a<4>_c=   1.7978   1:n_a<4>_c=   1.7978 
 + 1:n_a<4>_c=   1.8000   1:n_a<4>_c=   1.7999   1:n_a<4>_c=   1.7998 
 + 1:n_a<4>_c=   1.7978   1:n_a<4>_c=   1.7977   1:n_a<4>_c=   1.7996 
 + 1:n_a<4>_c=   1.8000   1:n_a<5>_c=   1.8000   1:n_a<5>_c=   1.8000 
 + 1:n_a<5>_c=   1.7999   1:n_a<5>_c=   1.8000   1:n_a<5>_c=   1.8000 
 + 1:n_a<5>_c=   1.8000   1:n_a<5>_c=   1.8000   1:n_a<5>_c=   1.8000 
 + 1:n_a<5>_c=   1.7998   1:n_a<5>_c=   1.8000   1:n_a<5>_c=   1.8000 
 + 1:n_a<5>_c=   1.7996   1:n_a<5>_c=   1.8000   1:n_a<6>_c=   2.9434u
 + 1:n_a<6>_c= 698.0401u  1:n_a<6>_c= 704.8259u  1:n_a<6>_c= 666.0573u
 + 1:n_a<6>_c= 681.2109u  1:n_a<6>_c= 682.9099u  1:n_a<6>_c=   3.1078u
 + 1:n_a<6>_c=  15.9146u  1:n_a<6>_c= 129.8464u  1:n_a<6>_c= 664.9862u
 + 1:n_a<6>_c= 687.5912u  1:n_a<6>_c= 235.0574u  1:n_a<6>_c=   9.2852u
 + 1:n_a<7>_c=   2.8952u  1:n_a<7>_c=  25.2388u  1:n_a<7>_c=  47.5377u
 + 1:n_a<7>_c=  25.2933u  1:n_a<7>_c=  25.9044u  1:n_a<7>_c=  25.9729u
 + 1:n_a<7>_c=   3.0569u  1:n_a<7>_c= 604.2754n  1:n_a<7>_c= 127.7196u
 + 1:n_a<7>_c=  25.2388u  1:n_a<7>_c=  25.9729u  1:n_a<7>_c= 231.2074u
 + 1:n_a<7>_c=   9.1331u  1:n_b<0>_c=   1.8000   1:n_b<0>_c=   1.8000 
 + 1:n_b<0>_c=   1.8000   1:n_b<0>_c=   1.8000   1:n_b<0>_c=   1.8000 
 + 1:n_b<0>_c=   1.7996   1:n_b<0>_c=   1.7999   1:n_b<0>_c=   1.7998 
 + 1:n_b<0>_c=   1.8000   1:n_b<1>_c=   1.8000   1:n_b<1>_c=   1.8000 
 + 1:n_b<1>_c=   1.8000   1:n_b<1>_c=   1.8000   1:n_b<1>_c=   1.8000 
 + 1:n_b<1>_c=   1.8000   1:n_b<1>_c=   1.8000   1:n_b<1>_c=   1.8000 
 + 1:n_b<1>_c=   1.8000   1:n_b<1>_c=   1.8000   1:n_b<1>_c=   1.8000 
 + 1:n_b<1>_c=   1.8000   1:n_b<1>_c=   1.8000   1:n_b<1>_c=   1.8000 
 + 1:n_b<1>_c=   1.8000   1:n_b<2>_c=   6.9684u  1:n_b<2>_c=  19.7873u
 + 1:n_b<2>_c=  13.5028u  1:n_b<2>_c=  17.0021u  1:n_b<2>_c=  15.1517u
 + 1:n_b<2>_c=   7.1737u  1:n_b<2>_c=  13.0876u  1:n_b<2>_c=   7.2188u
 + 1:n_b<2>_c=  45.9159u  1:n_b<2>_c=  17.6011u  1:n_b<2>_c= 299.4865u
 + 1:n_b<2>_c=  80.0268u  1:n_b<2>_c=  17.6358u  1:n_b<2>_c= 168.1425u
 + 1:n_b<2>_c=  15.5090u  1:n_b<3>_c=   1.8000   1:n_b<3>_c=   1.8000 
 + 1:n_b<3>_c=   1.8000   1:n_b<3>_c=   1.8000   1:n_b<3>_c=   1.8000 
 + 1:n_b<3>_c=   1.8000   1:n_b<3>_c=   1.8000   1:n_b<3>_c=   1.8000 
 + 1:n_b<3>_c=   1.8000   1:n_b<3>_c=   1.8000   1:n_b<3>_c=   1.8000 
 + 1:n_b<3>_c=   1.8000   1:n_b<3>_c=   1.8000   1:n_b<3>_c=   1.8000 
 + 1:n_b<3>_c=   1.8000   1:n_b<4>_c=   6.0574u  1:n_b<4>_c=  19.7945u
 + 1:n_b<4>_c=  11.7375u  1:n_b<4>_c=  14.7793u  1:n_b<4>_c=  13.1708u
 + 1:n_b<4>_c=   6.2358u  1:n_b<4>_c=  11.3765u  1:n_b<4>_c=   7.2171u
 + 1:n_b<4>_c=  45.3312u  1:n_b<4>_c=  15.3000u  1:n_b<4>_c= 260.3328u
 + 1:n_b<4>_c=  78.9337u  1:n_b<4>_c=  15.3301u  1:n_b<4>_c= 146.1602u
 + 1:n_b<4>_c=  15.5132u  1:n_b<5>_c=   1.8000   1:n_b<5>_c=   1.8000 
 + 1:n_b<5>_c=   1.8000   1:n_b<5>_c=   1.8000   1:n_b<5>_c=   1.8000 
 + 1:n_b<5>_c=   1.8000   1:n_b<5>_c=   1.8000   1:n_b<5>_c=   1.8000 
 + 1:n_b<5>_c=   1.8000   1:n_b<5>_c=   1.8000   1:n_b<5>_c=   1.7996 
 + 1:n_b<5>_c=   1.7999   1:n_b<5>_c=   1.8000   1:n_b<5>_c=   1.7998 
 + 1:n_b<5>_c=   1.8000   1:n_b<6>_c=   1.8000   1:n_b<6>_c=   1.8000 
 + 1:n_b<6>_c=   1.8000   1:n_b<6>_c=   1.8000   1:n_b<6>_c=   1.8000 
 + 1:n_b<6>_c=   1.8000   1:n_b<6>_c=   1.8000   1:n_b<6>_c=   1.8000 
 + 1:n_b<6>_c=   1.8000   1:n_b<6>_c=   1.8000   1:n_b<6>_c=   1.8000 
 + 1:n_b<6>_c=   1.8000   1:n_b<6>_c=   1.8000   1:n_b<6>_c=   1.8000 
 + 1:n_b<6>_c=   1.8000   1:n_b<7>_c=   5.5782u  1:n_b<7>_c=  14.0742u
 + 1:n_b<7>_c=  10.7893u  1:n_b<7>_c=  13.5799u  1:n_b<7>_c=  12.1043u
 + 1:n_b<7>_c=   5.7419u  1:n_b<7>_c=  10.4582u  1:n_b<7>_c=   4.8875u
 + 1:n_b<7>_c=   4.8405u  1:n_b<7>_c=  14.0576u  1:n_b<7>_c= 238.8591u
 + 1:n_b<7>_c=   5.0491u  1:n_b<7>_c=  14.0853u  1:n_b<7>_c= 134.1133u
 + 1:n_b<7>_c=  10.9471u  1:n_cout_c=  22.4677m  1:n_cout_c=  22.4680m
 + 1:n_cout_c=  22.4680m  1:n_cout_c=  22.4680m  1:n_cout_c=  22.4680m
 + 1:n_cout_c=  22.4679m  1:n_cout_c=  22.4680m  1:n_cout_c=  22.4680m
 + 1:n_cout_c=  22.4680m  1:n_cout_c=  22.4680m  1:n_cout_c=  22.4304m
 + 1:n_cout_c=  22.4304m  1:n_cout_c=  22.4306m  1:n_cout_c=  22.4304m
 + 1:n_cout_c=  22.4307m  1:n_cout_c=  22.4330m  1:n_cout_c=  22.4655m
 + 1:n_cout_c=  22.4631m  1:n_cout_c=  22.4328m  1:n_gnd!_c=  16.8169m
 + 1:n_gnd!_c=   3.5665m  1:n_gnd!_c=   3.6167m  1:n_gnd!_c=  20.0516m
 + 1:n_gnd!_c=  19.3492m  1:n_gnd!_c=  18.6640m  1:n_gnd!_c=  19.9124m
 + 1:n_gnd!_c=  19.6209m  1:n_gnd!_c=  19.6924m  1:n_gnd!_c=  19.6266m
 + 1:n_gnd!_c=  19.7233m  1:n_gnd!_c=  19.6124m  1:n_gnd!_c=  19.3007m
 + 1:n_gnd!_c=  20.3898m  1:n_gnd!_c=  20.3787m  1:n_gnd!_c=  20.3843m
 + 1:n_gnd!_c=  20.4698m  1:n_gnd!_c=  20.8361m  1:n_gnd!_c=  20.9229m
 + 1:n_gnd!_c=  20.8407m  1:n_gnd!_c=  21.4127m  1:n_gnd!_c=  20.8280m
 + 1:n_gnd!_c=  20.5695m  1:n_gnd!_c=  20.4031m  1:n_gnd!_c=  20.3813m
 + 1:n_gnd!_c=  20.3924m  1:n_gnd!_c=  20.4705m  1:n_gnd!_c=  20.8272m
 + 1:n_gnd!_c=  20.8938m  1:n_gnd!_c=  20.8322m  1:n_gnd!_c=  20.9225m
 + 1:n_gnd!_c=  20.8196m  1:n_gnd!_c=  20.5719m  1:n_gnd!_c=  20.4019m
 + 1:n_gnd!_c=  20.3810m  1:n_gnd!_c=  20.3916m  1:n_gnd!_c=  20.4654m
 + 1:n_gnd!_c=  20.8066m  1:n_gnd!_c=  20.8900m  1:n_gnd!_c=  20.8107m
 + 1:n_gnd!_c=  21.3774m  1:n_gnd!_c=  20.7992m  1:n_gnd!_c=  20.5625m
 + 1:n_gnd!_c=  20.3955m  1:n_gnd!_c=  20.3798m  1:n_gnd!_c=  20.3878m
 + 1:n_gnd!_c=  20.4911m  1:n_gnd!_c=  20.5947m  1:n_gnd!_c=  20.6853m
 + 1:n_gnd!_c=  20.5941m  1:n_gnd!_c=  22.2282m  1:n_gnd!_c=  20.5917m
 + 1:n_gnd!_c=  20.5087m  1:n_gnd!_c=  20.4125m  1:n_gnd!_c=  20.3830m
 + 1:n_gnd!_c=  20.3980m  1:n_gnd!_c=  20.4650m  1:n_gnd!_c=  20.8002m
 + 1:n_gnd!_c=  20.8648m  1:n_gnd!_c=  20.8047m  1:n_gnd!_c=  20.8925m
 + 1:n_gnd!_c=  20.7931m  1:n_gnd!_c=  20.5641m  1:n_gnd!_c=  20.3824m
 + 1:n_gnd!_c=  20.3773m  1:n_gnd!_c=  20.3799m  1:n_gnd!_c=  20.3956m
 + 1:n_gnd!_c=  20.3942m  1:n_gnd!_c=  20.3943m  1:n_gnd!_c=  20.3942m
 + 1:n_gnd!_c=  20.3951m  1:n_gnd!_c=  20.3942m  1:n_gnd!_c=  20.3939m
 + 1:n_gnd!_c=  19.7243m  1:n_gnd!_c=  21.8849m  1:n_gnd!_c=  20.9234m
 + 1:n_gnd!_c=  21.8485m  1:n_gnd!_c=  23.7947m  1:n_gnd!_c=  20.8934m
 + 1:n_gnd!_c=  20.3960m  1:n_gnd!_c=  20.3942m  1:n_gnd!_c=  20.3944m
 + 1:n_gnd!_c=  20.3803m  1:n_gnd!_c=  20.3921m  1:n_gnd!_c=  20.2562m
 + 1:n_gnd!_c=  20.4278m  1:n_gnd!_c=  20.4271m  1:n_gnd!_c=  20.4215m
 + 1:n_gnd!_c=  20.4729m  1:n_gnd!_c=  20.4173m  1:n_gnd!_c=  20.3960m
 + 1:n_gnd!_c=  19.2582m  1:n_gnd!_c=  20.3342m  1:n_gnd!_c=  20.2434m
 + 1:n_gnd!_c=  20.1548m  1:n_gnd!_c=  20.3601m  1:n_gnd!_c=  20.0777m
 + 1:n_gnd!_c=  20.3482m  1:n_gnd!_c=  20.3698m  1:n_gnd!_c=  20.3613m
 + 1:n_gnd!_c=  20.3355m  1:n_gnd!_c=  20.2940m  1:n_gnd!_c=  20.3374m
 + 1:n_gnd!_c=  20.3397m  1:n_gnd!_c=  20.3600m  1:n_gnd!_c=  20.3851m
 + 1:n_gnd!_c=  20.3618m  1:n_gnd!_c=  20.2317m  1:n_gnd!_c=  19.6204m
 + 1:n_gnd!_c=  20.4213m  1:n_gnd!_c=  20.3847m  1:n_gnd!_c=  20.4033m
 + 1:n_gnd!_c=  20.4092m  1:n_gnd!_c=  20.4489m  1:n_gnd!_c=  20.4344m
 + 1:n_gnd!_c=  20.4143m  1:n_gnd!_c=  20.3845m  1:n_gnd!_c=  20.4065m
 + 1:n_gnd!_c=  20.4295m  1:n_gnd!_c=  20.4334m  1:n_gnd!_c=  20.4336m
 + 1:n_gnd!_c=  20.4335m  1:n_gnd!_c=  20.3938m  1:n_gnd!_c=  20.4334m
 + 1:n_gnd!_c=  20.4057m  1:n_gnd!_c=  20.8355m  1:n_gnd!_c=  20.4216m
 + 1:n_gnd!_c=  20.3848m  1:n_gnd!_c=  20.4034m  1:n_gnd!_c=  20.4087m
 + 1:n_gnd!_c=  20.4488m  1:n_gnd!_c=  20.4324m  1:n_gnd!_c=  20.4137m
 + 1:n_gnd!_c=  20.3843m  1:n_gnd!_c=  20.4060m  1:n_gnd!_c=  20.4283m
 + 1:n_gnd!_c=  20.4316m  1:n_gnd!_c=  20.4317m  1:n_gnd!_c=  20.4314m
 + 1:n_gnd!_c=  20.3930m  1:n_gnd!_c=  20.4312m  1:n_gnd!_c=  20.4059m
 + 1:n_gnd!_c=  20.8268m  1:n_gnd!_c=  20.4191m  1:n_gnd!_c=  20.3843m
 + 1:n_gnd!_c=  20.4019m  1:n_gnd!_c=  20.4041m  1:n_gnd!_c=  20.4438m
 + 1:n_gnd!_c=  20.4225m  1:n_gnd!_c=  20.4088m  1:n_gnd!_c=  20.3832m
 + 1:n_gnd!_c=  20.4018m  1:n_gnd!_c=  20.4212m  1:n_gnd!_c=  20.4222m
 + 1:n_gnd!_c=  20.4223m  1:n_gnd!_c=  20.4209m  1:n_gnd!_c=  20.3888m
 + 1:n_gnd!_c=  20.4206m  1:n_gnd!_c=  20.4042m  1:n_gnd!_c=  20.8060m
 + 1:n_gnd!_c=  20.4452m  1:n_gnd!_c=  20.3902m  1:n_gnd!_c=  20.4243m
 + 1:n_gnd!_c=  20.4071m  1:n_gnd!_c=  20.5434m  1:n_gnd!_c=  20.4992m
 + 1:n_gnd!_c=  20.4235m  1:n_gnd!_c=  20.3851m  1:n_gnd!_c=  20.4046m
 + 1:n_gnd!_c=  20.4799m  1:n_gnd!_c=  20.4953m  1:n_gnd!_c=  20.4961m
 + 1:n_gnd!_c=  20.4899m  1:n_gnd!_c=  20.3999m  1:n_gnd!_c=  20.4881m
 + 1:n_gnd!_c=  20.4286m  1:n_gnd!_c=  20.5941m  1:n_gnd!_c=  20.4188m
 + 1:n_gnd!_c=  20.3842m  1:n_gnd!_c=  20.4018m  1:n_gnd!_c=  20.4023m
 + 1:n_gnd!_c=  20.4415m  1:n_gnd!_c=  20.4059m  1:n_gnd!_c=  20.4063m
 + 1:n_gnd!_c=  20.3827m  1:n_gnd!_c=  20.4001m  1:n_gnd!_c=  20.4125m
 + 1:n_gnd!_c=  20.4072m  1:n_gnd!_c=  20.4069m  1:n_gnd!_c=  20.4024m
 + 1:n_gnd!_c=  20.3803m  1:n_gnd!_c=  20.4018m  1:n_gnd!_c=  20.4041m
 + 1:n_gnd!_c=  20.7998m  1:n_gnd!_c=  20.3965m  1:n_gnd!_c=  20.3809m
 + 1:n_gnd!_c=  20.3945m  1:n_gnd!_c=  20.3958m  1:n_gnd!_c=  20.3958m
 + 1:n_gnd!_c=  20.3954m  1:n_gnd!_c=  20.3962m  1:n_gnd!_c=  20.3808m
 + 1:n_gnd!_c=  20.3941m  1:n_gnd!_c=  20.3958m  1:n_gnd!_c=  20.3955m
 + 1:n_gnd!_c=  20.3954m  1:n_gnd!_c=  20.3952m  1:n_gnd!_c=  20.3936m
 + 1:n_gnd!_c=  20.3952m  1:n_gnd!_c=  20.3962m  1:n_gnd!_c=  20.3942m
 + 1:n_net04_=   1.7366   1:n_net04_=   1.7365   1:n_net04_=   1.7366 
 + 1:n_net04_=   1.7366   1:n_net04_=   1.7366   1:n_net04_=   1.7366 
 + 1:n_net04_=   1.7366   1:n_net04_=   1.7366   1:n_net04_=   1.7366 
 + 1:n_net04_=   1.7366   1:n_net04_=   1.7366   1:n_net04_=   1.7359 
 + 1:n_net04_=   1.7366   1:n_net04_=   1.7358   1:n_net04_=   1.7366 
 + 1:n_net04_=   1.7365   1:n_net04_=   1.7358   1:n_net04_=   1.7365 
 + 1:n_net04_=   1.7365   1:n_net04_=   1.7365   1:n_net04_=   1.7365 
 + 1:n_net04_=   1.7365   1:n_net04_=   1.7365   1:n_net04_=   1.7358 
 + 1:n_net04_=   1.7358   1:n_net04_=   1.7366   1:n_net04_=   1.7365 
 + 1:n_net04_=   1.7358   1:n_net04_=   1.7358   1:n_net04_=   1.7358 
 + 1:n_net04_=   1.7356   1:n_net04_=   1.7358   1:n_net04_=   1.7358 
 + 1:n_net04_=   1.7358   1:n_net04_=   1.7357   1:n_net04_=   1.7358 
 + 1:n_net04_=   1.7358   1:n_net28_=   1.7786   1:n_net28_=   1.7785 
 + 1:n_net28_=   1.7786   1:n_net28_=   1.7786   1:n_net28_=   1.7786 
 + 1:n_net28_=   1.7786   1:n_net28_=   1.7786   1:n_net28_=   1.7786 
 + 1:n_net28_=   1.7786   1:n_net28_=   1.7786   1:n_net28_=   1.7786 
 + 1:n_net28_=   1.7776   1:n_net28_=   1.7786   1:n_net28_=   1.7775 
 + 1:n_net28_=   1.7786   1:n_net28_=   1.7785   1:n_net28_=   1.7775 
 + 1:n_net28_=   1.7784   1:n_net28_=   1.7784   1:n_net28_=   1.7784 
 + 1:n_net28_=   1.7784   1:n_net28_=   1.7784   1:n_net28_=   1.7784 
 + 1:n_net28_=   1.7775   1:n_net28_=   1.7775   1:n_net28_=   1.7785 
 + 1:n_net28_=   1.7784   1:n_net28_=   1.7775   1:n_net28_=   1.7775 
 + 1:n_net28_=   1.7774   1:n_net28_=   1.7772   1:n_net28_=   1.7775 
 + 1:n_net28_=   1.7775   1:n_net28_=   1.7775   1:n_net28_=   1.7773 
 + 1:n_net28_=   1.7775   1:n_net28_=   1.7775   1:n_net29_=   1.7624 
 + 1:n_net29_=   1.7624   1:n_net29_=   1.7624   1:n_net29_=   1.7624 
 + 1:n_net29_=   1.7624   1:n_net29_=   1.7624   1:n_net29_=   1.7624 
 + 1:n_net29_=   1.7624   1:n_net29_=   1.7624   1:n_net29_=   1.7624 
 + 1:n_net29_=   1.7624   1:n_net29_=   1.7615   1:n_net29_=   1.7624 
 + 1:n_net29_=   1.7614   1:n_net29_=   1.7624   1:n_net29_=   1.7623 
 + 1:n_net29_=   1.7614   1:n_net29_=   1.7622   1:n_net29_=   1.7622 
 + 1:n_net29_=   1.7622   1:n_net29_=   1.7622   1:n_net29_=   1.7622 
 + 1:n_net29_=   1.7623   1:n_net29_=   1.7614   1:n_net29_=   1.7614 
 + 1:n_net29_=   1.7624   1:n_net29_=   1.7623   1:n_net29_=   1.7615 
 + 1:n_net29_=   1.7614   1:n_net29_=   1.7614   1:n_net29_=   1.7612 
 + 1:n_net29_=   1.7614   1:n_net29_=   1.7614   1:n_net29_=   1.7614 
 + 1:n_net29_=   1.7613   1:n_net29_=   1.7614   1:n_net29_=   1.7614 
 + 1:n_net30_=   1.7479   1:n_net30_=   1.7479   1:n_net30_=   1.7479 
 + 1:n_net30_=   1.7479   1:n_net30_=   1.7479   1:n_net30_=   1.7479 
 + 1:n_net30_=   1.7479   1:n_net30_=   1.7479   1:n_net30_=   1.7479 
 + 1:n_net30_=   1.7479   1:n_net30_=   1.7479   1:n_net30_=   1.7471 
 + 1:n_net30_=   1.7479   1:n_net30_=   1.7471   1:n_net30_=   1.7479 
 + 1:n_net30_=   1.7479   1:n_net30_=   1.7471   1:n_net30_=   1.7478 
 + 1:n_net30_=   1.7478   1:n_net30_=   1.7478   1:n_net30_=   1.7478 
 + 1:n_net30_=   1.7478   1:n_net30_=   1.7478   1:n_net30_=   1.7471 
 + 1:n_net30_=   1.7471   1:n_net30_=   1.7479   1:n_net30_=   1.7478 
 + 1:n_net30_=   1.7471   1:n_net30_=   1.7471   1:n_net30_=   1.7470 
 + 1:n_net30_=   1.7468   1:n_net30_=   1.7471   1:n_net30_=   1.7471 
 + 1:n_net30_=   1.7471   1:n_net30_=   1.7469   1:n_net30_=   1.7471 
 + 1:n_net30_=   1.7471   1:n_net31_=   1.7285   1:n_net31_=   1.7285 
 + 1:n_net31_=   1.7285   1:n_net31_=   1.7285   1:n_net31_=   1.7285 
 + 1:n_net31_=   1.7285   1:n_net31_=   1.7285   1:n_net31_=   1.7285 
 + 1:n_net31_=   1.7285   1:n_net31_=   1.7285   1:n_net31_=   1.7285 
 + 1:n_net31_=   1.7285   1:n_net31_=   1.7285   1:n_net31_=   1.7285 
 + 1:n_net31_=   1.7285   1:n_net31_=   1.7285   1:n_net31_=   1.7285 
 + 1:n_net31_=   1.7284   1:n_net31_=   1.7284   1:n_net31_=   1.7284 
 + 1:n_net31_=   1.7284   1:n_net31_=   1.7284   1:n_net31_=   1.7284 
 + 1:n_net31_=   1.7285   1:n_net31_=   1.7285   1:n_net31_=   1.7285 
 + 1:n_net31_=   1.7284   1:n_net31_=   1.7285   1:n_net31_=   1.7285 
 + 1:n_net31_=   1.7285   1:n_net31_=   1.7285   1:n_net31_=   1.7285 
 + 1:n_net31_=   1.7285   1:n_net31_=   1.7285   1:n_net31_=   1.7285 
 + 1:n_net31_=   1.7285   1:n_net31_=   1.7285   1:n_net32_=   1.7213 
 + 1:n_net32_=   1.7213   1:n_net32_=   1.7213   1:n_net32_=   1.7213 
 + 1:n_net32_=   1.7213   1:n_net32_=   1.7213   1:n_net32_=   1.7213 
 + 1:n_net32_=   1.7213   1:n_net32_=   1.7213   1:n_net32_=   1.7213 
 + 1:n_net32_=   1.7213   1:n_net32_=   1.7207   1:n_net32_=   1.7213 
 + 1:n_net32_=   1.7207   1:n_net32_=   1.7213   1:n_net32_=   1.7213 
 + 1:n_net32_=   1.7207   1:n_net32_=   1.7213   1:n_net32_=   1.7213 
 + 1:n_net32_=   1.7213   1:n_net32_=   1.7213   1:n_net32_=   1.7213 
 + 1:n_net32_=   1.7213   1:n_net32_=   1.7207   1:n_net32_=   1.7207 
 + 1:n_net32_=   1.7213   1:n_net32_=   1.7213   1:n_net32_=   1.7207 
 + 1:n_net32_=   1.7207   1:n_net32_=   1.7207   1:n_net32_=   1.7205 
 + 1:n_net32_=   1.7207   1:n_net32_=   1.7207   1:n_net32_=   1.7207 
 + 1:n_net32_=   1.7206   1:n_net32_=   1.7207   1:n_net32_=   1.7207 
 + 1:n_net33_=   1.7181   1:n_net33_=   1.7181   1:n_net33_=   1.7181 
 + 1:n_net33_=   1.7181   1:n_net33_=   1.7181   1:n_net33_=   1.7181 
 + 1:n_net33_=   1.7181   1:n_net33_=   1.7181   1:n_net33_=   1.7181 
 + 1:n_net33_=   1.7181   1:n_net33_=   1.7181   1:n_net33_=   1.7181 
 + 1:n_net33_=   1.7181   1:n_net33_=   1.7181   1:n_net33_=   1.7181 
 + 1:n_net33_=   1.7181   1:n_net33_=   1.7181   1:n_net33_=   1.7181 
 + 1:n_net33_=   1.7181   1:n_net33_=   1.7181   1:n_net33_=   1.7181 
 + 1:n_net33_=   1.7181   1:n_net33_=   1.7181   1:n_net33_=   1.7181 
 + 1:n_net33_=   1.7181   1:n_net33_=   1.7181   1:n_net33_=   1.7181 
 + 1:n_net33_=   1.7181   1:n_net33_=   1.7181   1:n_net33_=   1.7181 
 + 1:n_net33_=   1.7181   1:n_net33_=   1.7181   1:n_net33_=   1.7181 
 + 1:n_net33_=   1.7181   1:n_net33_=   1.7181   1:n_net33_=   1.7181 
 + 1:n_net33_=   1.7181   1:n_vdd!_c=   1.7873   1:n_vdd!_c=   1.7890 
 + 1:n_vdd!_c=   1.7959   1:n_vdd!_c=   1.7959   1:n_vdd!_c=   1.7873 
 + 1:n_vdd!_c=   1.7872   1:n_vdd!_c=   1.7873   1:n_vdd!_c=   1.7873 
 + 1:n_vdd!_c=   1.7714   1:n_vdd!_c=   1.7739   1:n_vdd!_c=   1.7837 
 + 1:n_vdd!_c=   1.7837   1:n_vdd!_c=   1.7753   1:n_vdd!_c=   1.7837 
 + 1:n_vdd!_c=   1.7837   1:n_vdd!_c=   1.7837   1:n_vdd!_c=   1.7837 
 + 1:n_vdd!_c=   1.7837   1:n_vdd!_c=   1.7837   1:n_vdd!_c=   1.7699 
 + 1:n_vdd!_c=   1.7701   1:n_vdd!_c=   1.7705   1:n_vdd!_c=   1.7700 
 + 1:n_vdd!_c=   1.7697   1:n_vdd!_c=   1.7557   1:n_vdd!_c=   1.7578 
 + 1:n_vdd!_c=   1.7660   1:n_vdd!_c=   1.7660   1:n_vdd!_c=   1.7590 
 + 1:n_vdd!_c=   1.7660   1:n_vdd!_c=   1.7660   1:n_vdd!_c=   1.7660 
 + 1:n_vdd!_c=   1.7660   1:n_vdd!_c=   1.7661   1:n_vdd!_c=   1.7660 
 + 1:n_vdd!_c=   1.7545   1:n_vdd!_c=   1.7546   1:n_vdd!_c=   1.7550 
 + 1:n_vdd!_c=   1.7546   1:n_vdd!_c=   1.7543   1:n_vdd!_c=   1.7435 
 + 1:n_vdd!_c=   1.7451   1:n_vdd!_c=   1.7515   1:n_vdd!_c=   1.7515 
 + 1:n_vdd!_c=   1.7460   1:n_vdd!_c=   1.7515   1:n_vdd!_c=   1.7515 
 + 1:n_vdd!_c=   1.7515   1:n_vdd!_c=   1.7515   1:n_vdd!_c=   1.7515 
 + 1:n_vdd!_c=   1.7515   1:n_vdd!_c=   1.7425   1:n_vdd!_c=   1.7426 
 + 1:n_vdd!_c=   1.7429   1:n_vdd!_c=   1.7426   1:n_vdd!_c=   1.7424 
 + 1:n_vdd!_c=   1.7337   1:n_vdd!_c=   1.7350   1:n_vdd!_c=   1.7401 
 + 1:n_vdd!_c=   1.7401   1:n_vdd!_c=   1.7358   1:n_vdd!_c=   1.7401 
 + 1:n_vdd!_c=   1.7401   1:n_vdd!_c=   1.7401   1:n_vdd!_c=   1.7401 
 + 1:n_vdd!_c=   1.7401   1:n_vdd!_c=   1.7401   1:n_vdd!_c=   1.7330 
 + 1:n_vdd!_c=   1.7331   1:n_vdd!_c=   1.7333   1:n_vdd!_c=   1.7331 
 + 1:n_vdd!_c=   1.7329   1:n_vdd!_c=   1.7268   1:n_vdd!_c=   1.7277 
 + 1:n_vdd!_c=   1.7313   1:n_vdd!_c=   1.7313   1:n_vdd!_c=   1.7283 
 + 1:n_vdd!_c=   1.7313   1:n_vdd!_c=   1.7313   1:n_vdd!_c=   1.7313 
 + 1:n_vdd!_c=   1.7313   1:n_vdd!_c=   1.7313   1:n_vdd!_c=   1.7313 
 + 1:n_vdd!_c=   1.7263   1:n_vdd!_c=   1.7264   1:n_vdd!_c=   1.7265 
 + 1:n_vdd!_c=   1.7264   1:n_vdd!_c=   1.7263   1:n_vdd!_c=   1.7225 
 + 1:n_vdd!_c=   1.7230   1:n_vdd!_c=   1.7253   1:n_vdd!_c=   1.7253 
 + 1:n_vdd!_c=   1.7234   1:n_vdd!_c=   1.7253   1:n_vdd!_c=   1.7253 
 + 1:n_vdd!_c=   1.7253   1:n_vdd!_c=   1.7253   1:n_vdd!_c=   1.7253 
 + 1:n_vdd!_c=   1.7253   1:n_vdd!_c=   1.7222   1:n_vdd!_c=   1.7222 
 + 1:n_vdd!_c=   1.7223   1:n_vdd!_c=   1.7222   1:n_vdd!_c=   1.7222 
 + 1:n_vdd!_c=   1.7204   1:n_vdd!_c=   1.7207   1:n_vdd!_c=   1.7216 
 + 1:n_vdd!_c=   1.7216   1:n_vdd!_c=   1.7208   1:n_vdd!_c=   1.7216 
 + 1:n_vdd!_c=   1.7216   1:n_vdd!_c=   1.7216   1:n_vdd!_c=   1.7216 
 + 1:n_vdd!_c=   1.7217   1:n_vdd!_c=   1.7217   1:n_vdd!_c=   1.7716 
 + 1:n_vdd!_c=   1.7559   1:n_vdd!_c=   1.7436   1:n_vdd!_c=   1.7338 
 + 1:n_vdd!_c=   1.7269   1:n_vdd!_c=   1.7226   1:n_vdd!_c=   1.7204 
 + 1:n_vdd!_c=   1.8000   1:n_vdd!_c=   1.8000   1:n_vdd!_c=   1.7203 
 + 1:n_vdd!_c=   1.7203   1:n_vdd!_c=   1.7204   1:n_vdd!_c=   1.7203 
 + 1:n_vdd!_c=   1.7203   1:n_vdd!_c=   1.7203   1:n_vdd!_c=   1.7762 
 + 1:n_vdd!_c=   1.7707   1:n_vdd!_c=   1.7712   1:n_vdd!_c=   1.7715 
 + 1:n_vdd!_c=   1.7718   1:n_vdd!_c=   1.7719   1:n_vdd!_c=   1.7725 
 + 1:n_vdd!_c=   1.7717   1:n_vdd!_c=   1.7753   1:n_vdd!_c=   1.7737 
 + 1:n_vdd!_c=   1.7716   1:n_vdd!_c=   1.7597   1:n_vdd!_c=   1.7551 
 + 1:n_vdd!_c=   1.7555   1:n_vdd!_c=   1.7558   1:n_vdd!_c=   1.7561 
 + 1:n_vdd!_c=   1.7561   1:n_vdd!_c=   1.7566   1:n_vdd!_c=   1.7559 
 + 1:n_vdd!_c=   1.7590   1:n_vdd!_c=   1.7576   1:n_vdd!_c=   1.7559 
 + 1:n_vdd!_c=   1.7466   1:n_vdd!_c=   1.7430   1:n_vdd!_c=   1.7433 
 + 1:n_vdd!_c=   1.7435   1:n_vdd!_c=   1.7438   1:n_vdd!_c=   1.7438 
 + 1:n_vdd!_c=   1.7442   1:n_vdd!_c=   1.7437   1:n_vdd!_c=   1.7460 
 + 1:n_vdd!_c=   1.7450   1:n_vdd!_c=   1.7436   1:n_vdd!_c=   1.7362 
 + 1:n_vdd!_c=   1.7334   1:n_vdd!_c=   1.7336   1:n_vdd!_c=   1.7338 
 + 1:n_vdd!_c=   1.7340   1:n_vdd!_c=   1.7340   1:n_vdd!_c=   1.7343 
 + 1:n_vdd!_c=   1.7339   1:n_vdd!_c=   1.7358   1:n_vdd!_c=   1.7349 
 + 1:n_vdd!_c=   1.7338   1:n_vdd!_c=   1.7286   1:n_vdd!_c=   1.7266 
 + 1:n_vdd!_c=   1.7268   1:n_vdd!_c=   1.7269   1:n_vdd!_c=   1.7270 
 + 1:n_vdd!_c=   1.7270   1:n_vdd!_c=   1.7272   1:n_vdd!_c=   1.7270 
 + 1:n_vdd!_c=   1.7283   1:n_vdd!_c=   1.7277   1:n_vdd!_c=   1.7269 
 + 1:n_vdd!_c=   1.7236   1:n_vdd!_c=   1.7224   1:n_vdd!_c=   1.7225 
 + 1:n_vdd!_c=   1.7225   1:n_vdd!_c=   1.7226   1:n_vdd!_c=   1.7226 
 + 1:n_vdd!_c=   1.7227   1:n_vdd!_c=   1.7226   1:n_vdd!_c=   1.7234 
 + 1:n_vdd!_c=   1.7230   1:n_vdd!_c=   1.7226   1:n_vdd!_c=   1.7209 
 + 1:n_vdd!_c=   1.7204   1:n_vdd!_c=   1.7204   1:n_vdd!_c=   1.7204 
 + 1:n_vdd!_c=   1.7205   1:n_vdd!_c=   1.7205   1:n_vdd!_c=   1.7205 
 + 1:n_vdd!_c=   1.7204   1:n_vdd!_c=   1.7208   1:n_vdd!_c=   1.7206 
 + 1:n_vdd!_c=   1.7204   1:n_vdd!_c=   1.7873   1:n_vdd!_c=   1.7873 
 + 1:n_vdd!_c=   1.7709   1:n_vdd!_c=   1.7715   1:n_vdd!_c=   1.7707 
 + 1:n_vdd!_c=   1.7693   1:n_vdd!_c=   1.7699   1:n_vdd!_c=   1.7707 
 + 1:n_vdd!_c=   1.7707   1:n_vdd!_c=   1.7707   1:n_vdd!_c=   1.7708 
 + 1:n_vdd!_c=   1.7694   1:n_vdd!_c=   1.7693   1:n_vdd!_c=   1.7693 
 + 1:n_vdd!_c=   1.7716   1:n_vdd!_c=   1.7715   1:n_vdd!_c=   1.7707 
 + 1:n_vdd!_c=   1.7553   1:n_vdd!_c=   1.7558   1:n_vdd!_c=   1.7551 
 + 1:n_vdd!_c=   1.7540   1:n_vdd!_c=   1.7545   1:n_vdd!_c=   1.7551 
 + 1:n_vdd!_c=   1.7551   1:n_vdd!_c=   1.7551   1:n_vdd!_c=   1.7552 
 + 1:n_vdd!_c=   1.7541   1:n_vdd!_c=   1.7540   1:n_vdd!_c=   1.7540 
 + 1:n_vdd!_c=   1.7558   1:n_vdd!_c=   1.7558   1:n_vdd!_c=   1.7551 
 + 1:n_vdd!_c=   1.7432   1:n_vdd!_c=   1.7435   1:n_vdd!_c=   1.7430 
 + 1:n_vdd!_c=   1.7422   1:n_vdd!_c=   1.7425   1:n_vdd!_c=   1.7430 
 + 1:n_vdd!_c=   1.7430   1:n_vdd!_c=   1.7430   1:n_vdd!_c=   1.7431 
 + 1:n_vdd!_c=   1.7422   1:n_vdd!_c=   1.7422   1:n_vdd!_c=   1.7422 
 + 1:n_vdd!_c=   1.7436   1:n_vdd!_c=   1.7435   1:n_vdd!_c=   1.7430 
 + 1:n_vdd!_c=   1.7335   1:n_vdd!_c=   1.7338   1:n_vdd!_c=   1.7334 
 + 1:n_vdd!_c=   1.7328   1:n_vdd!_c=   1.7330   1:n_vdd!_c=   1.7334 
 + 1:n_vdd!_c=   1.7334   1:n_vdd!_c=   1.7334   1:n_vdd!_c=   1.7334 
 + 1:n_vdd!_c=   1.7328   1:n_vdd!_c=   1.7328   1:n_vdd!_c=   1.7328 
[...]
  cstot       1.8696f   476.9504a   476.2072a   315.7720a   469.9580a
  cbtot       2.4764f   776.5989a   774.7571a   681.0664a   703.0869a
  cgs       751.4986a   221.0592a   221.7492a    69.7425a   109.8462a
  cgd       630.2005a   210.1786a   209.9805a   109.9845a    74.1197a



 subckt    x1          x1          x1          x1          x1        
 element   1:mxi13/xi  1:mxi13/xi  1:mxi13/xi  1:mxi13/xi  1:mxi13/xi
 model     0:pmos_vtg  0:pmos_vtg  0:nmos_vtg  0:nmos_vtg  0:nmos_vtg
 region        Cutoff      Cutoff      Cutoff      Cutoff      Cutoff
  id       -473.2227n    -4.0074n     8.0759n   218.1419f   -83.1899a
  ibs       -74.7980f     2.1107f  -506.4920a    -1.6985p    -1.7794p
  ibd         1.6872p     1.6872p    -1.6985p    -1.7767p    -1.7767p
  vgs       -76.0100m    76.4435m   -20.1794m    81.1678m   -80.8939m
  vds        -1.7615     -1.6850      1.6979     78.1742m    -2.7196m
  vbs       -74.3257m     2.1160m  -517.2820u    -1.6985     -1.7793 
  vth      -212.9952m  -234.4342m   284.6330m   668.7548m   683.9213m
  vdsat     -41.6306m   -40.6227m    39.3670m    41.6306m    41.6298m
  vod       136.9852m   310.8777m  -304.8125m  -587.5869m  -764.8152m
  beta        3.2083m     3.0656m     9.2694m     4.4812m     4.3634m
  gam eff   400.0000m   400.0000m   400.0000m   400.0000m   400.0000m
  gm         11.5019u   110.5903n   221.3583n     6.9092p     2.6429f
  gds         1.9065u    17.1268n    20.8251n   854.2899f    29.6189f
  gmb         2.2945u    26.4213n    55.1563n     1.0122p   395.6583a
  cdtot     376.1739a   376.0386a   356.1210a   394.6061a   385.5727a
  cgtot     240.1799a   224.3743a   216.8146a   251.0051a   225.2094a
  cstot     495.6865a   468.7512a   451.2915a   364.7359a   345.2137a
  cbtot     704.3446a   702.9509a   668.1724a   551.2270a   549.1418a
  cgs       132.5706a   108.9778a   108.3393a   118.6654a   101.5650a
  cgd        74.2477a    74.1300a    69.6896a   110.8950a   101.8625a



 subckt    x1          x1          x1          x1          x1        
 element   1:mxi13/xi  1:mxi13/xi  1:mxi13/xi  1:mxi13/xi  1:mxi13/xi
 model     0:pmos_vtg  0:pmos_vtg  0:pmos_vtg  0:nmos_vtg  0:pmos_vtg
 region        Linear      Cutoff      Linear      Cutoff      Linear
  id         -6.0416u    74.1268n    -2.6126u    75.8263n   -25.3750u
  ibs        -2.9315f     1.7217p   -77.9159f    42.4902a   127.8093a
  ibd         3.4915f   -75.1569f   -75.1468f    -1.6978p     4.2273f
  vgs        -1.7245      1.7993     -1.7990    654.6567u    -1.7009 
  vds        -6.4162m     1.7963     -2.7131m     1.6977     -4.0745m
  vbs        -2.9278m     1.7216    -77.3838m    -4.9252u   129.3854u
  vth      -382.3708m  -209.8374m  -368.4878m   284.5300m  -383.1878m
  vdsat    -647.8320m   -40.2824m  -678.4775m    39.4128m  -641.7012m
  vod        -1.3422      2.0091     -1.4305   -283.8753m    -1.3178 
  beta        1.4341m     3.2270m     1.4006m    49.1022m     9.7360m
  gam eff   400.0000m   400.0000m   400.0000m   400.0000m   400.0000m
  gm        939.1659n     1.9386u   337.7737n     2.0635u     4.0332u
  gds       936.8416u   312.0341n   960.9928u   194.4119n     6.2077m
  gmb       786.9766n   403.6468n   292.5797n   508.1266n     3.3246u
  cdtot     784.8389a   548.1601a   800.0580a     1.6156f     4.8140f
  cgtot     484.6634a   233.0667a   482.8877a     1.1557f     3.2599f
  cstot     517.5508a   331.5601a   521.6783a     1.9445f     2.9908f
  cbtot     816.6075a   723.0099a   832.6369a     2.8051f     4.5355f
  cgs       265.5104a    74.0552a   263.3903a   586.0640a     1.7885f
  cgd       222.8364a   123.8680a   224.0061a   369.3087a     1.4989f



 subckt    x1          x1          x1          x1          x1        
 element   1:mxi13/xi  1:mxi13/xi  1:mxi13/xi  1:mxi13/xi  1:mxi13/xi
 model     0:nmos_vtg  0:nmos_vtg  0:pmos_vtg  0:pmos_vtg  0:nmos_vtg
 region        Linear      Linear      Cutoff      Cutoff      Cutoff
  id         30.7169u    30.6493u   -22.9906n  -178.8042n    96.4571n
  ibs      -427.9105a    -4.8858f    -1.0863f  -693.1109a    10.2189a
  ibd        -4.8846f    -9.3497f     1.6924p     1.6924p    -1.6983p
  vgs         1.7753      1.6951     73.0202m    -2.5330m     9.4715m
  vds         4.4337m     4.4456m    -1.6934     -1.6930      1.6982 
  vbs      -428.6814u    -4.8623m    -1.0435m  -672.5624u   -33.2468u
  vth       410.6920m   411.6211m  -233.0524m  -233.1675m   284.4975m
  vdsat     701.6582m   665.3991m   -40.6075m   -40.7364m    39.4232m
  vod         1.3647      1.2835    306.0726m   230.6344m  -275.0261m
  beta       17.5500m    18.3463m    15.1593m    15.1584m    49.1045m
  gam eff   400.0000m   400.0000m   400.0000m   400.0000m   400.0000m
  gm          1.4987u     1.8610u   633.4213n     4.7821u     2.6156u
  gds         6.9105m     6.8757m    98.3223n   751.7583n   246.6345n
  gmb         3.4047u     3.5592u   150.9441n     1.0888u   640.8449n
  cdtot       3.9411f     3.8818f     1.5666f     1.5673f     1.6156f
  cgtot       2.5634f     2.5674f     1.1061f     1.1418f     1.1597f
  cstot       2.3005f     2.3568f     1.8807f     1.9243f     1.9496f
  cbtot       3.5925f     3.5927f     2.7432f     2.7325f     2.8039f
  cgs         1.3232f     1.3295f   539.8692a   584.3724a   591.1292a
  cgd         1.2645f     1.2609f   365.4909a   366.2324a   369.3930a



 subckt    x1          x1          x1          x1          x1        
 element   1:mxi13/xi  1:mxi13/xi  1:mxi13/xi  1:mxi13/xi  1:mxi13/xi
 model     0:pmos_vtg  0:nmos_vtg  0:nmos_vtg  0:pmos_vtg  0:pmos_vtg
 region        Linear      Cutoff      Cutoff      Linear      Cutoff
  id        -23.8059u    21.3409n   307.7587n    -1.3671u  -666.9530f
  ibs      -186.2388a   -64.2164a    -1.3687p  -219.3628a  -116.7467a
  ibd         3.6645f    -1.3687p    -1.7020p    79.3105a    81.3645a
  vgs        -1.6924    -20.2048m   411.1186m    -1.7222     77.5499m
  vds        -3.8268m     1.3684    333.3589m  -297.1911u  -197.1282u
  vbs      -182.7287u   -64.3895u    -1.3685   -216.2368u  -116.1739u
  vth      -383.1475m   309.0716m   607.7627m  -383.4541m  -383.4838m
  vdsat    -638.2215m    39.6525m    41.9525m  -650.0396m   -42.0904m
  vod        -1.3093   -329.2765m  -196.6440m    -1.3387    461.0336m
  beta        9.7717m    53.0582m    29.9765m     7.0746m    11.4707m
  gam eff   400.0000m   400.0000m   400.0000m   400.0000m   400.0000m
  gm          3.8382u   588.5633n     8.6286u   206.7302n    18.6803p
  gds         6.2018m    51.5656n   724.4762n     4.5991m     3.3758n
  gmb         3.1374u   148.9164n     1.2554u   176.3314n     4.9232p
  cdtot       4.8137f     1.8284f     2.0231f     3.4860f     2.2140f
  cgtot       3.2615f     1.3026f     1.6301f     2.3882f     1.2750f
  cstot       2.9920f     2.1522f     1.9559f     2.1113f     1.8767f
  cbtot       4.5362f     3.1378f     2.5992f     3.1995f     3.2190f
  cgs         1.7902f   650.0074a   794.2065a     1.3061f   536.7738a
  cgd         1.4987f   422.6918a   710.1680a     1.1023f   536.6003a



 subckt    x1          x1          x1          x1          x1        
 element   1:mxi13/xi  1:mxi13/xi  1:mxi14/xi  1:mxi14/xi  1:mxi14/xi
 model     0:nmos_vtg  0:pmos_vtg  0:nmos_vtg  0:nmos_vtg  0:pmos_vtg
 region        Linear      Cutoff      Cutoff      Cutoff      Linear
  id         13.9862u  -234.7100n    39.0751n    38.9415n   -23.9434u
  ibs       -29.6393a   -47.5161a     2.0114a     2.0451a   244.6645a
  ibd        -2.3321f     1.6997p    -1.6899p    -1.6899p     5.1085f
  vgs         1.7016   -210.6130u     2.7761m     2.6478m    -1.6968 
  vds         2.2918m    -1.6996      1.6899      1.6899     -4.8398m
  vbs       -31.2755u   -21.4990u   -19.3349u   -19.3349u   245.2529u
  vth       410.7686m  -232.7058m   285.1259m   285.1240m  -383.1433m
  vdsat     668.5228m   -40.7266m    39.4138m    39.4137m  -639.8675m
  vod         1.2908    232.4952m  -282.3498m  -282.4762m    -1.3137 
  beta       16.1452m    20.6898m    24.3515m    24.3516m     7.7527m
  gam eff   400.0000m   400.0000m   400.0000m   400.0000m   400.0000m
  gm        817.1683n     6.2846u     1.0628u     1.0592u     3.8464u
  gds         6.0943m   988.6600n    99.9740n    99.6366n     4.9282m
  gmb         1.6179u     1.4336u   261.4924n   260.6300n     3.1492u
  cdtot       3.5507f     2.1947f   836.1567a   791.2181a     3.7540f
  cgtot       2.2662f     1.5551f   574.6029a   574.5733a     2.5919f
  cstot       2.0658f     2.7272f     1.0564f     1.0564f     2.2632f
  cbtot       3.2803f     3.8892f     1.5172f     1.4723f     3.4187f
  cgs         1.1718f   794.6593a   291.5779a   291.5411a     1.4228f
  cgd         1.1149f   499.2835a   183.4137a   183.4129a     1.1908f



 subckt    x1          x1          x1          x1          x1        
 element   1:mxi14/xi  1:mxi14/xi  1:mxi14/xi  1:mxi14/xi  1:mxi14/xi
 model     0:pmos_vtg  0:nmos_vtg  0:nmos_vtg  0:nmos_vtg  0:pmos_vtg
 region        Linear      Cutoff      Cutoff      Cutoff      Linear
  id        -23.8609u     9.0902n     1.4540f   -23.8607a    -5.6366u
  ibs         5.1086f    -7.6721a    -1.6952p    -1.6978p    -1.2259f
  ibd         9.9564f    -1.6952p    -1.6977p    -1.6977p     4.7727f
  vgs        -1.6921    -15.7253m     2.5408m    -2.5359m    -1.7169 
  vds        -4.8298m     1.6952      2.4888m   -47.1264u    -5.9926m
  vbs         5.0851m   -18.1962u    -1.6952     -1.6977     -1.2241m
  vth      -384.1100m   284.7334m   673.9891m   674.4773m  -382.7481m
  vdsat    -637.8594m    39.3707m    41.6689m    41.6690m  -644.7142m
  vod        -1.3080   -300.4587m  -671.4483m  -677.0132m    -1.3342 
  beta        7.7642m     9.2676m     4.4401m     4.4362m     1.4384m
  gam eff   400.0000m   400.0000m   400.0000m   400.0000m   400.0000m
  gm          3.8766u   248.8093n    46.0575f   755.8909a   887.7442n
  gds         4.9213m    23.4009n   567.3031f   506.0436f   936.1209u
  gmb         3.1431u    61.8606n     6.8844f   113.0657a   739.8258n
  cdtot       3.6742f   356.2499a   397.0318a   396.7533a   784.5543a
  cgtot       2.5925f   217.2275a   243.2053a   242.3823a   484.8649a
  cstot       2.3346f   451.8457a   357.0163a   356.3834a   517.5031a
  cbtot       3.4106f   668.2467a   554.4135a   554.3468a   816.3420a
  cgs         1.4235f   108.8369a   110.8465a   110.2903a   265.6906a
  cgd         1.1905f    69.7032a   110.5739a   110.2963a   222.8204a



 subckt    x1          x1          x1          x1          x1        
 element   1:mxi14/xi  1:mxi14/xi  1:mxi14/xi  1:mxi14/xi  1:mxi14/xi
 model     0:pmos_vtg  0:pmos_vtg  0:nmos_vtg  0:nmos_vtg  0:nmos_vtg
 region        Cutoff      Linear      Cutoff      Cutoff      Linear
  id         36.2066n   -44.4054n     7.8869n   -14.3900n     4.0886u
  ibs         1.7157p     2.2505f    -9.4758a    -1.6892p    19.9688f
  ibd         2.2934f     2.2976f    -1.6892p    16.4989f    16.4888f
  vgs         1.7135     -1.7135    -20.3394m    -1.7095      1.7091 
  vds         1.7134    -47.0341u     1.6891     -1.7056      3.4729m
  vbs         1.7157      2.2486m   -19.8509u    -1.6892     19.9382m
  vth      -231.9516m  -383.9693m   285.1844m   280.5272m   406.5342m
  vdsat     -40.7166m  -643.1242m    39.3724m    39.3315m   669.0898m
  vod         1.9454     -1.3295   -305.5239m    -1.9900      1.3025 
  beta        3.0817m     1.4396m     9.2596m     9.3424m     3.0455m
  gam eff   400.0000m   400.0000m   400.0000m   400.0000m   400.0000m
  gm        969.5464n     6.9119n   216.2062n   390.6993n   234.6865n
  gds       152.8740n   944.0755u    20.3023n    36.8841n     1.1748m
  gmb       220.7838n     5.8362n    53.9135n    94.6528n   467.1216n
  cdtot     537.7242a   786.1793a   356.4679a   511.2330a   744.2194a
  cgtot     231.6488a   484.9969a   216.8293a   218.6489a   428.3253a
  cstot     331.9156a   516.1275a   451.3305a   316.0623a   478.5320a
  cbtot     716.5678a   816.5116a   668.5761a   684.8769a   781.3519a
  cgs        74.2236a   265.1173a   108.3214a    69.7057a   221.5315a
  cgd       118.1432a   223.5056a    69.7060a   111.5128a   210.4574a



 subckt    x1          x1          x1          x1          x1        
 element   1:mxi14/xi  1:mxi14/xi  1:mxi14/xi  1:mxi14/xi  1:mxi14/xi
 model     0:pmos_vtg  0:pmos_vtg  0:pmos_vtg  0:nmos_vtg  0:pmos_vtg
 region        Linear      Cutoff      Cutoff      Linear      Cutoff
  id        -11.3108u     2.7843f     2.5002f    12.4018u  -303.3537n
  ibs        -1.2719f     1.7204p     1.7200p   -19.3769a    -3.2269a
  ibd        10.8132f     1.7165p     1.7165p    -2.0622f     1.6980p
  vgs        -1.7216    -20.8381u  -408.0356u     1.6897    -10.1040m
  vds       -12.0742m     3.8848m     3.4775m     2.0333m    -1.6979 
  vbs        -1.2701m     1.7203      1.7199    -20.9375u    19.4016u
  vth      -382.1993m  -630.2325m  -630.2686m   410.7857m  -232.8694m
  vdsat    -646.7316m   -48.4109m   -48.4111m   663.1855m   -40.7694m
  vod        -1.3394    630.2117m   629.8606m     1.2789    222.7654m
  beta        1.4360m     1.6091m     1.6090m    16.2545m    20.6838m
  gam eff   400.0000m   400.0000m   400.0000m   400.0000m   400.0000m
  gm          1.8025u    88.3983f    79.3793f   746.2264n     8.0750u
  gds       927.8258u   690.8201f   695.7863f     6.0919m     1.2731u
  gmb         1.4825u    11.7667f    10.5672f     1.4449u     1.8315u
  cdtot     782.3070a   419.3958a   419.3935a     3.5500f     2.1952f
  cgtot     484.6890a   259.1120a   259.1552a     2.2667f     1.5614f
  cstot     518.5166a   375.6693a   375.7277a     2.0663f     2.7350f
  cbtot     815.2899a   580.7668a   580.7798a     3.2805f     3.8880f
  cgs       266.2262a   118.1248a   118.1702a     1.1724f   802.4489a
  cgd       222.1064a   118.5808a   118.5784a     1.1146f   499.4420a



 subckt    x1          x1          x1          x1          x1        
 element   1:mxi14/xi  1:mxi14/xi  1:mxi14/xi  1:mxi14/xi  1:mxi14/xi
 model     0:nmos_vtg  0:nmos_vtg  0:pmos_vtg  0:pmos_vtg  0:nmos_vtg
 region        Cutoff      Cutoff      Linear      Cutoff      Linear
  id         21.8545n   121.4379n    -1.1700u    -2.9841p    14.7963u
  ibs       -17.9710a    -1.3284p  -446.6613a  -283.1353a   -22.4254a
  ibd        -1.3284p    -1.7003p  -190.8552a  -188.8841a    -2.4587f
  vgs       -15.8416m   369.5326m    -1.7161     -2.5249m     1.6999 
  vds         1.3282    371.9531m  -254.5595u   -93.8146u     2.4250m
  vbs       -18.0511u    -1.3282   -442.4865u  -281.7416u   -24.0780u
  vth       312.0583m   599.5556m  -383.4127m  -383.4598m   410.7572m
  vdsat      39.6853m    41.7268m  -647.5794m   -42.0919m   667.7693m
  vod      -327.8998m  -230.0231m    -1.3327    380.9350m     1.2892 
  beta       52.7523m    30.4357m     7.0929m    11.4713m    16.1609m
  gam eff   400.0000m   400.0000m   400.0000m   400.0000m   400.0000m
  gm        602.5432n     3.5428u   178.7856n    83.1941p   869.2264n
  gds        52.3808n   293.5971n     4.5953m    31.7746n     6.0927m
  gmb       152.3489n   519.7839n   151.5040n    20.8932p     1.7136u
  cdtot       1.8374f     1.9751f     3.4856f     2.2614f     3.5503f
  cgtot       1.3057f     1.5804f     2.3889f     1.3593f     2.2662f
  cstot       2.1551f     1.9585f     2.1120f     1.9240f     2.0661f
  cbtot       3.1454f     2.6083f     3.1997f     3.2089f     3.2802f
  cgs       652.9280a   790.7882a     1.3071f   584.0538a     1.1720f
  cgd       423.4723a   661.8116a     1.1021f   583.8717a     1.1147f



 subckt    x1          x1          x1          x1          x1        
 element   1:mxi14/xi  1:mxi14/xi  1:mxi14/xi  1:mxi14/xi  1:mxi14/xi
 model     0:pmos_vtg  0:nmos_vtg  0:nmos_vtg  0:pmos_vtg  0:pmos_vtg
 region        Cutoff      Cutoff      Cutoff      Linear      Linear
  id       -231.4488n     1.1074n     1.1118n   -17.7398u   -17.6320u
  ibs      -104.5871a   -19.7940a  -100.6684f    25.4470a    49.1124a
  ibd         1.6976p  -100.7327f    -1.6958p     3.9122f     3.9122f
  vgs         3.7860u   -20.1646m  -120.7236m    -1.7200     -1.7199 
  vds        -1.6976    100.5687m     1.5951     -3.8685m    -3.8450m
  vbs       -78.7016u   -19.6843u  -100.5883m    27.3391u    50.8888u
  vth      -232.8756m   403.4505m   312.7147m  -383.1859m  -383.1927m
  vdsat     -40.7271m    40.6329m    39.7097m  -649.2183m  -649.2047m
  vod       232.8794m  -423.6151m  -433.4383m    -1.3368     -1.3367 
  beta       20.6826m    44.1504m    52.6867m     7.0822m     7.0823m
  gam eff   400.0000m   400.0000m   400.0000m   400.0000m   400.0000m
  gm          6.1986u    30.9020n    31.4981n     2.7262u     2.7096u
  gds       974.6832n     3.2241n     2.8826n     4.5718m     4.5719m
  gmb         1.4142u     8.2740n     7.9057n     2.2950u     2.2811u
  cdtot       2.1951f     2.4049f     1.7321f     3.4793f     3.4794f
  cgtot       1.5550f     1.4642f     1.2324f     2.3883f     2.3883f
  cstot       2.7271f     2.1522f     2.0896f     2.1146f     2.1136f
  cbtot       3.8897f     3.5527f     3.0492f     3.1967f     3.1957f
  cgs       794.5208a   650.0249a   584.3160a     1.3084f     1.3084f
  cgd       499.3091a   584.3021a   418.1647a     1.1001f     1.1001f



 subckt    x1          x1        
 element   1:mxi14/xi  1:mxi14/xi
 model     0:nmos_vtg  0:pmos_vtg
 region        Linear      Cutoff
  id         14.1756u  -259.6258n
  ibs       -21.8958a   -21.6297a
  ibd        -2.3564f     1.6977p
  vgs         1.6955     -4.3065m
  vds         2.3237m    -1.6976 
  vbs       -23.5044u     2.5482u
  vth       410.7646m  -232.8902m
  vdsat     665.7989m   -40.7440m
  vod         1.2848    228.5838m
  beta       16.2011m    20.6824m
  gam eff   400.0000m   400.0000m
  gm        841.8199n     6.9359u
  gds         6.0919m     1.0918u
  gmb         1.6460u     1.5785u
  cdtot       3.5500f     2.1952f
  cgtot       2.2664f     1.5577f
  cstot       2.0663f     2.7304f
  cbtot       3.2803f     3.8890f
  cgs         1.1722f   797.8913a
  cgd         1.1146f   499.3672a




          ***** job concluded
1****** HSPICE -- D-2010.03-SP2 32-BIT (Aug 26 2010) linux ******               
 ******  
 .include

  ******  job statistics summary tnom=  25.000 temp=  25.000 *****
 
 
 ******  Machine Information  ******
 CPU:
 model name	: Intel(R) Xeon(R) CPU E5-1620 0 @ 3.60GHz
 cpu MHz	: 1200.000
 
 OS:
 Linux version 2.6.32-358.6.2.el6.x86_64 (mockbuild@x86-022.build.eng.bos.redhat
 .com) (gcc version 4.4.7 20120313 (Red Hat 4.4.7-3) (GCC) ) #1 SMP Tue May 14 1
 5:48:21 EDT 2013


  ******  HSPICE Threads Information  ******

  Command Line Threads Count                  :     1
  Available CPU Count                         :     8
  Actual Model Evaluation(Load) Threads Count :     1
  Actual Solver Threads Count                 :     1


  ******  Circuit Statistics  ******
  # nodes       =    5177 # elements   =   12743
  # resistors   =    4496 # capacitors =    8008 # inductors   =       0
  # mutual_inds =       0 # vccs       =       0 # vcvs        =       0
  # cccs        =       0 # ccvs       =       0 # volt_srcs   =      17
  # curr_srcs   =       0 # diodes     =       0 # bjts        =       0
  # jfets       =       0 # mosfets    =     222 # U elements  =       0
  # T elements  =       0 # W elements =       0 # B elements  =       0
  # S elements  =       0 # P elements =       0 # va device   =       0


  ******  Runtime Statistics (seconds)  ******

  analysis           time    # points   tot. iter  conv.iter
  op point           0.46           1         174
  transient          5.45         101        2511         780 rev=        11
  readin             0.22
  errchk             0.07
  setup              0.21
  output             0.00


           total memory used         8777  kbytes
           total cpu time            6.39 seconds
           total elapsed time        8.14 seconds
           job started at     15:28:02 06/06/2013
           job ended   at     15:28:10 06/06/2013


 lic: Release hspice token(s) 
